REMARK  Name = 
REMARK  6 active torsions:
REMARK  status: ('A' for Active; 'I' for Inactive)
REMARK    1  A    between atoms: C_1  and  O_2
REMARK    2  A    between atoms: O_2  and  C_3
REMARK    3  A    between atoms: C_6  and  C_7
REMARK    4  A    between atoms: C_8  and  C_9
REMARK    5  A    between atoms: C_11  and  O_12
REMARK    6  A    between atoms: C_14  and  O_15
REMARK                            x       y       z     vdW  Elec       q    Type
REMARK                         _______ _______ _______ _____ _____    ______ ____
ROOT
ATOM      1  C   UNL     1       1.914  -6.206   1.703  0.00  0.00    +0.000 C 
ATOM      2  C   UNL     1       0.989  -7.127   2.085  0.00  0.00    +0.000 C 
ENDROOT
BRANCH   1   6
ATOM      3  C   UNL     1       0.771  -2.121   1.204  0.00  0.00    +0.000 A 
ATOM      4  C   UNL     1      -0.204  -3.049   1.528  0.00  0.00    +0.000 A 
ATOM      5  C   UNL     1       0.308  -4.319   1.884  0.00  0.00    +0.000 A 
ATOM      6  C   UNL     1       1.530  -4.738   1.606  0.00  0.00    +0.000 A 
ATOM      7  C   UNL     1       2.429  -3.781   1.226  0.00  0.00    +0.000 A 
ATOM      8  C   UNL     1       2.028  -2.490   0.986  0.00  0.00    +0.000 A 
BRANCH   3  10
ATOM      9  C   UNL     1       0.901   0.015  -0.009  0.00  0.00    +0.000 C 
ATOM     10  O   UNL     1       0.428  -0.747   1.092  0.00  0.00    +0.000 OA
ENDBRANCH   3  10
ENDBRANCH   1   6
BRANCH   2  11
ATOM     11  C   UNL     1      -0.429  -6.690   2.415  0.00  0.00    +0.000 A 
ATOM     12  C   UNL     1      -1.056  -7.174   3.550  0.00  0.00    +0.000 A 
ATOM     13  C   UNL     1      -2.447  -6.917   3.591  0.00  0.00    +0.000 A 
ATOM     14  C   UNL     1      -3.063  -6.013   2.850  0.00  0.00    +0.000 A 
ATOM     15  C   UNL     1      -2.365  -5.523   1.782  0.00  0.00    +0.000 A 
ATOM     16  C   UNL     1      -1.038  -5.834   1.603  0.00  0.00    +0.000 A 
BRANCH  13  17
ATOM     17  O   UNL     1      -3.235  -7.683   4.490  0.00  0.00    +0.000 OA
ATOM     18  H   UNL     1      -4.221  -7.529   4.546  0.00  0.00    +0.000 HD
ENDBRANCH  13  17
BRANCH  15  19
ATOM     19  O   UNL     1      -3.019  -4.680   0.845  0.00  0.00    +0.000 OA
ATOM     20  H   UNL     1      -2.515  -4.318   0.061  0.00  0.00    +0.000 HD
ENDBRANCH  15  19
ENDBRANCH   2  11
TORSDOF 5
