REMARK  Name = 
REMARK  3 active torsions:
REMARK  status: ('A' for Active; 'I' for Inactive)
REMARK    1  A    between atoms: C_1  and  O_2
REMARK    2  A    between atoms: O_2  and  C_3
REMARK    3  A    between atoms: C_12  and  C_14
REMARK                            x       y       z     vdW  Elec       q    Type
REMARK                         _______ _______ _______ _____ _____    ______ ____
ROOT
ATOM      1  C   UNL     1       0.859  -1.652  -1.878  0.00  0.00    +0.000 A 
ATOM      2  C   UNL     1      -0.079  -2.217  -2.715  0.00  0.00    +0.000 A 
ATOM      3  C   UNL     1       0.287  -2.631  -3.989  0.00  0.00    +0.000 A 
ATOM      4  C   UNL     1       1.586  -2.488  -4.437  0.00  0.00    +0.000 A 
ATOM      5  C   UNL     1       2.510  -1.923  -3.574  0.00  0.00    +0.000 A 
ATOM      6  C   UNL     1       2.183  -1.492  -2.304  0.00  0.00    +0.000 A 
ATOM      7  C   UNL     1       3.210  -0.888  -1.417  0.00  0.00    +0.000 A 
ATOM      8  O   UNL     1       2.879  -0.516  -0.289  0.00  0.00    +0.000 OA
ATOM      9  C   UNL     1       4.549  -0.815  -1.967  0.00  0.00    +0.000 A 
ATOM     10  C   UNL     1       4.781  -1.331  -3.260  0.00  0.00    +0.000 A 
ATOM     11  O   UNL     1       3.805  -1.821  -4.052  0.00  0.00    +0.000 OA
ENDROOT
BRANCH  10  12
ATOM     12  C   UNL     1       6.207  -1.336  -3.788  0.00  0.00    +0.000 A 
ATOM     13  C   UNL     1       6.505  -0.636  -4.946  0.00  0.00    +0.000 A 
ATOM     14  C   UNL     1       7.771  -0.949  -5.495  0.00  0.00    +0.000 A 
ATOM     15  C   UNL     1       8.746  -1.547  -4.835  0.00  0.00    +0.000 A 
ATOM     16  C   UNL     1       8.400  -2.162  -3.664  0.00  0.00    +0.000 A 
ATOM     17  C   UNL     1       7.143  -2.011  -3.131  0.00  0.00    +0.000 A 
ENDBRANCH  10  12
BRANCH   1  19
ATOM     18  C   UNL     1       0.989  -0.097   0.023  0.00  0.00    +0.000 C 
ATOM     19  O   UNL     1       0.516  -1.310  -0.543  0.00  0.00    +0.000 OA
ENDBRANCH   1  19
TORSDOF 2
