REMARK  Name = 
REMARK  3 active torsions:
REMARK  status: ('A' for Active; 'I' for Inactive)
REMARK    1  A    between atoms: C_1  and  O_2
REMARK    2  A    between atoms: O_2  and  C_3
REMARK    3  A    between atoms: C_6  and  C_7
REMARK                            x       y       z     vdW  Elec       q    Type
REMARK                         _______ _______ _______ _____ _____    ______ ____
ROOT
ATOM      1  C   UNL     1       2.069   4.116   4.905  0.00  0.00    +0.000 A 
ATOM      2  C   UNL     1       3.412   3.972   5.406  0.00  0.00    +0.000 A 
ATOM      3  C   UNL     1       4.349   3.122   4.718  0.00  0.00    +0.000 A 
ATOM      4  O   UNL     1       5.534   2.994   5.160  0.00  0.00    +0.000 OA
ATOM      5  C   UNL     1       3.921   2.376   3.465  0.00  0.00    +0.000 A 
ATOM      6  C   UNL     1       4.103   1.011   3.321  0.00  0.00    +0.000 A 
ATOM      7  C   UNL     1       3.761   0.519   2.039  0.00  0.00    +0.000 A 
ATOM      8  C   UNL     1       3.009   1.164   1.165  0.00  0.00    +0.000 A 
ATOM      9  C   UNL     1       2.811   2.496   1.400  0.00  0.00    +0.000 A 
ATOM     10  C   UNL     1       3.233   3.078   2.572  0.00  0.00    +0.000 A 
ATOM     11  O   UNL     1       1.193   4.910   5.547  0.00  0.00    +0.000 OA
ENDROOT
BRANCH   1  15
ATOM     12  C   UNL     1       0.798   1.842   1.521  0.00  0.00    +0.000 A 
ATOM     13  C   UNL     1      -0.140   2.599   2.203  0.00  0.00    +0.000 A 
ATOM     14  C   UNL     1       0.420   3.477   3.161  0.00  0.00    +0.000 A 
ATOM     15  C   UNL     1       1.641   3.371   3.651  0.00  0.00    +0.000 A 
ATOM     16  C   UNL     1       2.501   2.554   2.970  0.00  0.00    +0.000 A 
ATOM     17  C   UNL     1       2.056   1.764   1.938  0.00  0.00    +0.000 A 
BRANCH  12  19
ATOM     18  C   UNL     1       0.928  -0.041  -0.056  0.00  0.00    +0.000 C 
ATOM     19  O   UNL     1       0.455   1.256   0.273  0.00  0.00    +0.000 OA
ENDBRANCH  12  19
ENDBRANCH   1  15
TORSDOF 2
