REMARK  Name = 
REMARK  10 active torsions:
REMARK  status: ('A' for Active; 'I' for Inactive)
REMARK    1  A    between atoms: C_2  and  C_3
REMARK    2  A    between atoms: C_2  and  C_14
REMARK    3  A    between atoms: C_3  and  C_4
REMARK    4  A    between atoms: C_4  and  C_5
REMARK    5  A    between atoms: C_5  and  C_6
REMARK    6  A    between atoms: C_6  and  C_7
REMARK    7  A    between atoms: C_10  and  O_11
REMARK    8  A    between atoms: C_14  and  C_15
REMARK    9  A    between atoms: C_15  and  C_16
REMARK   10  A    between atoms: C_19  and  O_20
REMARK                            x       y       z     vdW  Elec       q    Type
REMARK                         _______ _______ _______ _____ _____    ______ ____
ROOT
ATOM      1  O   UNL     1       0.933  -0.043   0.061  0.00  0.00    +0.000 OA
ATOM      2  C   UNL     1       2.204  -0.043   0.061  0.00  0.00    +0.000 C 
ENDROOT
BRANCH   2   3
ATOM      3  C   UNL     1       2.964  -1.032  -0.807  0.00  0.00    +0.000 C 
BRANCH   3   4
ATOM      4  C   UNL     1       3.838  -0.275  -1.793  0.00  0.00    +0.000 C 
BRANCH   4   5
ATOM      5  C   UNL     1       4.826   0.594  -1.031  0.00  0.00    +0.000 C 
BRANCH   5   6
ATOM      6  C   UNL     1       5.700  -0.285  -0.152  0.00  0.00    +0.000 C 
BRANCH   6   7
ATOM      7  C   UNL     1       6.460  -1.275  -1.020  0.00  0.00    +0.000 A 
ATOM      8  C   UNL     1       6.135  -2.603  -0.858  0.00  0.00    +0.000 A 
ATOM      9  C   UNL     1       6.673  -3.585  -1.697  0.00  0.00    +0.000 A 
ATOM     10  C   UNL     1       7.544  -3.161  -2.722  0.00  0.00    +0.000 A 
ATOM     11  C   UNL     1       7.884  -1.836  -2.854  0.00  0.00    +0.000 A 
ATOM     12  C   UNL     1       7.334  -0.893  -2.008  0.00  0.00    +0.000 A 
BRANCH  10  13
ATOM     13  O   UNL     1       8.094  -4.036  -3.595  0.00  0.00    +0.000 OA
ATOM     14  H   UNL     1       7.872  -5.009  -3.533  0.00  0.00    +0.000 HD
ENDBRANCH  10  13
ENDBRANCH   6   7
ENDBRANCH   5   6
ENDBRANCH   4   5
ENDBRANCH   3   4
ENDBRANCH   2   3
BRANCH   2  15
ATOM     15  C   UNL     1       2.964   0.946   0.929  0.00  0.00    +0.000 C 
BRANCH  15  16
ATOM     16  C   UNL     1       2.597   2.364   0.522  0.00  0.00    +0.000 C 
BRANCH  16  17
ATOM     17  C   UNL     1       1.103   2.573   0.705  0.00  0.00    +0.000 A 
ATOM     18  C   UNL     1       0.592   3.850   0.775  0.00  0.00    +0.000 A 
ATOM     19  C   UNL     1      -0.781   4.070   0.933  0.00  0.00    +0.000 A 
ATOM     20  C   UNL     1      -1.620   2.939   0.999  0.00  0.00    +0.000 A 
ATOM     21  C   UNL     1      -1.095   1.669   0.957  0.00  0.00    +0.000 A 
ATOM     22  C   UNL     1       0.265   1.488   0.801  0.00  0.00    +0.000 A 
BRANCH  20  23
ATOM     23  O   UNL     1      -2.961   3.056   1.126  0.00  0.00    +0.000 OA
ATOM     24  H   UNL     1      -3.383   3.962   1.160  0.00  0.00    +0.000 HD
ENDBRANCH  20  23
ENDBRANCH  16  17
ENDBRANCH  15  16
ENDBRANCH   2  15
TORSDOF 10
