REMARK  Name = 
REMARK  5 active torsions:
REMARK  status: ('A' for Active; 'I' for Inactive)
REMARK    1  A    between atoms: C_1  and  O_2
REMARK    2  A    between atoms: O_2  and  C_3
REMARK    3  A    between atoms: C_5  and  O_6
REMARK    4  A    between atoms: C_8  and  C_9
REMARK    5  A    between atoms: C_10  and  C_11
REMARK                            x       y       z     vdW  Elec       q    Type
REMARK                         _______ _______ _______ _____ _____    ______ ____
ROOT
ATOM      1  C   UNL     1      -0.553   1.576   1.002  0.00  0.00    +0.000 A 
ATOM      2  C   UNL     1      -0.893   2.876   1.293  0.00  0.00    +0.000 A 
ATOM      3  C   UNL     1      -2.039   3.146   2.014  0.00  0.00    +0.000 A 
ATOM      4  C   UNL     1      -2.835   2.119   2.461  0.00  0.00    +0.000 A 
ATOM      5  C   UNL     1      -2.489   0.812   2.202  0.00  0.00    +0.000 A 
ATOM      6  C   UNL     1      -1.335   0.502   1.474  0.00  0.00    +0.000 A 
ENDROOT
BRANCH   1   8
ATOM      7  C   UNL     1       1.039   0.073  -0.055  0.00  0.00    +0.000 C 
ATOM      8  O   UNL     1       0.566   1.372   0.270  0.00  0.00    +0.000 OA
ENDBRANCH   1   8
BRANCH   3   9
ATOM      9  O   UNL     1      -2.396   4.492   2.295  0.00  0.00    +0.000 OA
ATOM     10  H   UNL     1      -3.226   4.690   2.818  0.00  0.00    +0.000 HD
ENDBRANCH   3   9
BRANCH   5  11
ATOM     11  C   UNL     1      -3.375  -0.312   2.714  0.00  0.00    +0.000 C 
ATOM     12  C   UNL     1      -4.499  -0.023   3.423  0.00  0.00    +0.000 C 
BRANCH  12  13
ATOM     13  C   UNL     1      -5.385  -1.147   3.936  0.00  0.00    +0.000 A 
ATOM     14  C   UNL     1      -6.766  -1.076   3.852  0.00  0.00    +0.000 A 
ATOM     15  C   UNL     1      -7.439  -2.017   4.666  0.00  0.00    +0.000 A 
ATOM     16  C   UNL     1      -6.880  -3.097   5.181  0.00  0.00    +0.000 A 
ATOM     17  C   UNL     1      -5.513  -3.137   5.173  0.00  0.00    +0.000 A 
ATOM     18  C   UNL     1      -4.782  -2.182   4.510  0.00  0.00    +0.000 A 
ENDBRANCH  12  13
ENDBRANCH   5  11
TORSDOF 4
