REMARK  Name = 
REMARK  6 active torsions:
REMARK  status: ('A' for Active; 'I' for Inactive)
REMARK    1  A    between atoms: C_1  and  O_2
REMARK    2  A    between atoms: O_2  and  C_3
REMARK    3  A    between atoms: C_6  and  C_7
REMARK    4  A    between atoms: C_7  and  C_9
REMARK    5  A    between atoms: C_10  and  C_11
REMARK    6  A    between atoms: C_17  and  O_18
REMARK                            x       y       z     vdW  Elec       q    Type
REMARK                         _______ _______ _______ _____ _____    ______ ____
ROOT
ATOM      1  C   UNL     1       0.189  -1.049   2.009  0.00  0.00    +0.000 A 
ATOM      2  C   UNL     1      -0.247  -0.855   3.298  0.00  0.00    +0.000 A 
ATOM      3  C   UNL     1      -0.623  -1.936   4.072  0.00  0.00    +0.000 A 
ATOM      4  C   UNL     1      -0.547  -3.211   3.565  0.00  0.00    +0.000 A 
ATOM      5  C   UNL     1      -0.083  -3.420   2.285  0.00  0.00    +0.000 A 
ATOM      6  C   UNL     1       0.306  -2.349   1.474  0.00  0.00    +0.000 A 
ENDROOT
BRANCH   1   8
ATOM      7  C   UNL     1       0.992  -0.091  -0.042  0.00  0.00    +0.000 C 
ATOM      8  O   UNL     1       0.518   0.048   1.290  0.00  0.00    +0.000 OA
ENDBRANCH   1   8
BRANCH   4   9
ATOM      9  C   UNL     1      -0.974  -4.393   4.420  0.00  0.00    +0.000 C 
ATOM     10  O   UNL     1      -1.402  -4.202   5.601  0.00  0.00    +0.000 OA
BRANCH   9  11
ATOM     11  C   UNL     1      -0.890  -5.804   3.861  0.00  0.00    +0.000 C 
ATOM     12  C   UNL     1      -0.432  -6.009   2.596  0.00  0.00    +0.000 C 
BRANCH  12  13
ATOM     13  C   UNL     1      -0.348  -7.420   2.038  0.00  0.00    +0.000 A 
ATOM     14  C   UNL     1       0.815  -7.774   1.374  0.00  0.00    +0.000 A 
ATOM     15  C   UNL     1       0.716  -8.987   0.651  0.00  0.00    +0.000 A 
ATOM     16  C   UNL     1      -0.218  -9.900   0.844  0.00  0.00    +0.000 A 
ATOM     17  C   UNL     1      -1.312  -9.508   1.566  0.00  0.00    +0.000 A 
ATOM     18  C   UNL     1      -1.344  -8.285   2.192  0.00  0.00    +0.000 A 
ENDBRANCH  12  13
ENDBRANCH   9  11
ENDBRANCH   4   9
BRANCH   5  19
ATOM     19  O   UNL     1       0.001  -4.745   1.780  0.00  0.00    +0.000 OA
ATOM     20  H   UNL     1       0.336  -4.906   0.852  0.00  0.00    +0.000 HD
ENDBRANCH   5  19
TORSDOF 5
