REMARK  Name = 
REMARK  7 active torsions:
REMARK  status: ('A' for Active; 'I' for Inactive)
REMARK    1  A    between atoms: C_1  and  O_2
REMARK    2  A    between atoms: O_2  and  C_3
REMARK    3  A    between atoms: C_6  and  C_7
REMARK    4  A    between atoms: C_7  and  C_9
REMARK    5  A    between atoms: C_10  and  C_11
REMARK    6  A    between atoms: C_14  and  O_15
REMARK    7  A    between atoms: C_18  and  O_19
REMARK                            x       y       z     vdW  Elec       q    Type
REMARK                         _______ _______ _______ _____ _____    ______ ____
ROOT
ATOM      1  C   UNL     1      -1.081  -4.115   4.472  0.00  0.00    +0.000 C 
ATOM      2  O   UNL     1      -1.500  -3.894   5.651  0.00  0.00    +0.000 OA
ENDROOT
BRANCH   1   6
ATOM      3  C   UNL     1       0.144  -0.840   1.999  0.00  0.00    +0.000 A 
ATOM      4  C   UNL     1      -0.283  -0.614   3.286  0.00  0.00    +0.000 A 
ATOM      5  C   UNL     1      -0.679  -1.673   4.080  0.00  0.00    +0.000 A 
ATOM      6  C   UNL     1      -0.632  -2.958   3.595  0.00  0.00    +0.000 A 
ATOM      7  C   UNL     1      -0.178  -3.200   2.318  0.00  0.00    +0.000 A 
ATOM      8  C   UNL     1       0.231  -2.151   1.487  0.00  0.00    +0.000 A 
BRANCH   3  10
ATOM      9  C   UNL     1       0.968   0.066  -0.068  0.00  0.00    +0.000 C 
ATOM     10  O   UNL     1       0.494   0.237   1.260  0.00  0.00    +0.000 OA
ENDBRANCH   3  10
BRANCH   7  11
ATOM     11  O   UNL     1      -0.124  -4.534   1.836  0.00  0.00    +0.000 OA
ATOM     12  H   UNL     1       0.204  -4.719   0.910  0.00  0.00    +0.000 HD
ENDBRANCH   7  11
ENDBRANCH   1   6
BRANCH   1  13
ATOM     13  C   UNL     1      -1.030  -5.537   3.938  0.00  0.00    +0.000 C 
ATOM     14  C   UNL     1      -0.581  -5.774   2.676  0.00  0.00    +0.000 C 
BRANCH  14  15
ATOM     15  C   UNL     1      -0.529  -7.196   2.142  0.00  0.00    +0.000 A 
ATOM     16  C   UNL     1      -1.590  -8.055   2.331  0.00  0.00    +0.000 A 
ATOM     17  C   UNL     1      -1.574  -9.349   1.802  0.00  0.00    +0.000 A 
ATOM     18  C   UNL     1      -0.442  -9.735   1.054  0.00  0.00    +0.000 A 
ATOM     19  C   UNL     1       0.623  -8.879   0.897  0.00  0.00    +0.000 A 
ATOM     20  C   UNL     1       0.574  -7.607   1.433  0.00  0.00    +0.000 A 
BRANCH  18  21
ATOM     21  O   UNL     1      -0.349 -10.958   0.484  0.00  0.00    +0.000 OA
ATOM     22  H   UNL     1      -1.102 -11.610   0.575  0.00  0.00    +0.000 HD
ENDBRANCH  18  21
ENDBRANCH  14  15
ENDBRANCH   1  13
TORSDOF 6
