REMARK  Name = 
REMARK  7 active torsions:
REMARK  status: ('A' for Active; 'I' for Inactive)
REMARK    1  A    between atoms: C_1  and  O_2
REMARK    2  A    between atoms: O_2  and  C_3
REMARK    3  A    between atoms: C_5  and  C_6
REMARK    4  A    between atoms: C_7  and  C_8
REMARK    5  A    between atoms: C_11  and  O_12
REMARK    6  A    between atoms: C_16  and  O_17
REMARK    7  A    between atoms: O_17  and  C_18
REMARK                            x       y       z     vdW  Elec       q    Type
REMARK                         _______ _______ _______ _____ _____    ______ ____
ROOT
ATOM      1  C   UNL     1       0.844  -2.018  -1.559  0.00  0.00    +0.000 A 
ATOM      2  C   UNL     1      -0.206  -2.536  -2.301  0.00  0.00    +0.000 A 
ATOM      3  C   UNL     1       0.204  -3.275  -3.436  0.00  0.00    +0.000 A 
ATOM      4  C   UNL     1       1.405  -3.206  -3.981  0.00  0.00    +0.000 A 
ATOM      5  C   UNL     1       2.383  -2.621  -3.225  0.00  0.00    +0.000 A 
ATOM      6  C   UNL     1       2.081  -1.994  -2.041  0.00  0.00    +0.000 A 
ENDROOT
BRANCH   1   8
ATOM      7  C   UNL     1       0.974  -0.087  -0.042  0.00  0.00    +0.000 C 
ATOM      8  O   UNL     1       0.500  -1.394  -0.331  0.00  0.00    +0.000 OA
ENDBRANCH   1   8
BRANCH   3   9
ATOM      9  C   UNL     1      -0.808  -4.213  -4.072  0.00  0.00    +0.000 C 
ATOM     10  C   UNL     1      -2.059  -4.321  -3.548  0.00  0.00    +0.000 C 
BRANCH  10  11
ATOM     11  C   UNL     1      -3.071  -5.260  -4.184  0.00  0.00    +0.000 A 
ATOM     12  C   UNL     1      -4.369  -4.859  -4.455  0.00  0.00    +0.000 A 
ATOM     13  C   UNL     1      -5.232  -5.919  -4.819  0.00  0.00    +0.000 A 
ATOM     14  C   UNL     1      -4.828  -7.108  -5.226  0.00  0.00    +0.000 A 
ATOM     15  C   UNL     1      -3.517  -7.418  -4.990  0.00  0.00    +0.000 A 
ATOM     16  C   UNL     1      -2.642  -6.473  -4.512  0.00  0.00    +0.000 A 
BRANCH  14  17
ATOM     17  O   UNL     1      -5.707  -8.016  -5.874  0.00  0.00    +0.000 OA
ATOM     18  H   UNL     1      -5.372  -8.910  -6.171  0.00  0.00    +0.000 HD
ENDBRANCH  14  17
ENDBRANCH  10  11
ENDBRANCH   3   9
BRANCH   5  19
ATOM     19  O   UNL     1       3.731  -2.663  -3.670  0.00  0.00    +0.000 OA
ATOM     20  C   UNL     1       4.755  -2.060  -2.893  0.00  0.00    +0.000 C 
ENDBRANCH   5  19
TORSDOF 5
