REMARK  Name = 
REMARK  5 active torsions:
REMARK  status: ('A' for Active; 'I' for Inactive)
REMARK    1  A    between atoms: C_4  and  C_5
REMARK    2  A    between atoms: C_14  and  O_15
REMARK    3  A    between atoms: O_15  and  C_16
REMARK    4  A    between atoms: C_18  and  O_19
REMARK    5  A    between atoms: O_19  and  C_20
REMARK                            x       y       z     vdW  Elec       q    Type
REMARK                         _______ _______ _______ _____ _____    ______ ____
ROOT
ATOM      1  O   UNL     1      -1.725   2.022   0.006  0.00  0.00    +0.000 OA
ATOM      2  C   UNL     1      -1.399   0.833   0.014  0.00  0.00    +0.000 A 
ATOM      3  C   UNL     1      -2.316  -0.289   0.000  0.00  0.00    +0.000 A 
ATOM      4  C   UNL     1      -1.787  -1.598  -0.042  0.00  0.00    +0.000 A 
ATOM      5  O   UNL     1      -0.466  -1.868   0.011  0.00  0.00    +0.000 OA
ATOM      6  C   UNL     1       0.453  -0.834   0.016  0.00  0.00    +0.000 A 
ATOM      7  C   UNL     1       1.788  -1.207   0.016  0.00  0.00    +0.000 A 
ATOM      8  C   UNL     1       2.738  -0.204  -0.004  0.00  0.00    +0.000 A 
ATOM      9  C   UNL     1       2.366   1.133  -0.020  0.00  0.00    +0.000 A 
ATOM     10  C   UNL     1       1.031   1.477  -0.013  0.00  0.00    +0.000 A 
ATOM     11  C   UNL     1       0.044   0.484   0.009  0.00  0.00    +0.000 A 
ENDROOT
BRANCH   4  12
ATOM     12  C   UNL     1      -2.756  -2.763  -0.153  0.00  0.00    +0.000 A 
ATOM     13  C   UNL     1      -2.775  -3.723   0.846  0.00  0.00    +0.000 A 
ATOM     14  C   UNL     1      -3.491  -4.894   0.503  0.00  0.00    +0.000 A 
ATOM     15  C   UNL     1      -4.364  -4.976  -0.485  0.00  0.00    +0.000 A 
ATOM     16  C   UNL     1      -4.341  -3.962  -1.402  0.00  0.00    +0.000 A 
ATOM     17  C   UNL     1      -3.568  -2.844  -1.201  0.00  0.00    +0.000 A 
ENDBRANCH   4  12
BRANCH   8  18
ATOM     18  O   UNL     1       4.116  -0.546  -0.008  0.00  0.00    +0.000 OA
ATOM     19  C   UNL     1       5.102   0.476  -0.029  0.00  0.00    +0.000 C 
ENDBRANCH   8  18
BRANCH  10  20
ATOM     20  O   UNL     1       0.655   2.846  -0.028  0.00  0.00    +0.000 OA
ATOM     21  C   UNL     1      -0.719   3.205  -0.021  0.00  0.00    +0.000 C 
ENDBRANCH  10  20
TORSDOF 3
