REMARK  Name = 
REMARK  7 active torsions:
REMARK  status: ('A' for Active; 'I' for Inactive)
REMARK    1  A    between atoms: C_1  and  O_2
REMARK    2  A    between atoms: O_2  and  C_3
REMARK    3  A    between atoms: C_5  and  C_6
REMARK    4  A    between atoms: C_7  and  C_8
REMARK    5  A    between atoms: C_8  and  C_10
REMARK    6  A    between atoms: C_13  and  O_14
REMARK    7  A    between atoms: C_19  and  O_20
REMARK                            x       y       z     vdW  Elec       q    Type
REMARK                         _______ _______ _______ _____ _____    ______ ____
ROOT
ATOM      1  C   UNL     1       0.834  -6.154  -0.487  0.00  0.00    +0.000 C 
ATOM      2  C   UNL     1      -0.129  -6.230  -1.446  0.00  0.00    +0.000 C 
ENDROOT
BRANCH   1   5
ATOM      3  C   UNL     1       1.052  -2.421   0.060  0.00  0.00    +0.000 A 
ATOM      4  C   UNL     1       0.660  -3.649  -0.418  0.00  0.00    +0.000 A 
ATOM      5  C   UNL     1       1.255  -4.800   0.060  0.00  0.00    +0.000 A 
ATOM      6  C   UNL     1       2.227  -4.726   1.028  0.00  0.00    +0.000 A 
ATOM      7  C   UNL     1       2.607  -3.503   1.537  0.00  0.00    +0.000 A 
ATOM      8  C   UNL     1       2.025  -2.318   1.075  0.00  0.00    +0.000 A 
BRANCH   3  10
ATOM      9  C   UNL     1       0.926  -0.064  -0.020  0.00  0.00    +0.000 C 
ATOM     10  O   UNL     1       0.453  -1.327  -0.464  0.00  0.00    +0.000 OA
ENDBRANCH   3  10
BRANCH   8  11
ATOM     11  O   UNL     1       2.401  -1.057   1.609  0.00  0.00    +0.000 OA
ATOM     12  H   UNL     1       1.973  -0.221   1.265  0.00  0.00    +0.000 HD
ENDBRANCH   8  11
ENDBRANCH   1   5
BRANCH   2  13
ATOM     13  C   UNL     1      -0.550  -7.584  -1.993  0.00  0.00    +0.000 C 
ATOM     14  O   UNL     1      -1.449  -7.655  -2.888  0.00  0.00    +0.000 OA
BRANCH  13  15
ATOM     15  C   UNL     1       0.102  -8.853  -1.468  0.00  0.00    +0.000 A 
ATOM     16  C   UNL     1       0.250  -8.946  -0.102  0.00  0.00    +0.000 A 
ATOM     17  C   UNL     1       0.888 -10.046   0.481  0.00  0.00    +0.000 A 
ATOM     18  C   UNL     1       1.357 -11.060  -0.379  0.00  0.00    +0.000 A 
ATOM     19  C   UNL     1       1.230 -10.941  -1.743  0.00  0.00    +0.000 A 
ATOM     20  C   UNL     1       0.595  -9.841  -2.285  0.00  0.00    +0.000 A 
BRANCH  18  21
ATOM     21  O   UNL     1       1.965 -12.171   0.096  0.00  0.00    +0.000 OA
ATOM     22  H   UNL     1       2.077 -12.296   1.082  0.00  0.00    +0.000 HD
ENDBRANCH  18  21
ENDBRANCH  13  15
ENDBRANCH   2  13
TORSDOF 6
