
 OpenBabel09262513003D

 37 38  0  0  0  0  0  0  0  0999 V2000
    0.9297   -0.0137    0.0698 C   0  0  0  0  0  0  0  0  0  0  0  0
    0.4564   -1.3222   -0.2134 O   0  0  0  0  0  0  0  0  0  0  0  0
    0.7994   -1.9515   -1.4393 C   0  0  0  0  0  0  0  0  0  0  0  0
   -0.2502   -2.4721   -2.1780 C   0  0  0  0  0  0  0  0  0  0  0  0
    0.1589   -3.2158   -3.3101 C   0  0  0  0  0  0  0  0  0  0  0  0
    1.3596   -3.1493   -3.8559 C   0  0  0  0  0  0  0  0  0  0  0  0
    1.6386   -3.6962   -5.2464 C   0  0  0  0  0  0  0  0  0  0  0  0
    0.6373   -4.2734   -5.9639 C   0  0  0  0  0  0  0  0  0  0  0  0
    0.9163   -4.8203   -7.3544 C   0  0  0  0  0  0  0  0  0  0  0  0
   -0.0192   -5.3595   -8.0247 O   0  0  0  0  0  0  0  0  0  0  0  0
    2.3142   -4.7221   -7.9432 C   0  0  0  0  0  0  0  0  0  0  0  0
    2.4714   -4.3046   -9.2545 C   0  0  0  0  0  0  0  0  0  0  0  0
    3.7672   -4.5298   -9.7764 C   0  0  0  0  0  0  0  0  0  0  0  0
    4.8397   -4.7649   -9.0425 C   0  0  0  0  0  0  0  0  0  0  0  0
    6.1503   -4.6682   -9.5805 O   0  0  0  0  0  0  0  0  0  0  0  0
    7.2770   -4.9293   -8.7567 C   0  0  0  0  0  0  0  0  0  0  0  0
    4.6203   -5.1064   -7.7369 C   0  0  0  0  0  0  0  0  0  0  0  0
    3.3616   -5.0374   -7.1904 C   0  0  0  0  0  0  0  0  0  0  0  0
    3.1791   -5.3056   -5.8079 O   0  0  0  0  0  0  0  0  0  0  0  0
    2.3382   -2.5621   -3.1029 C   0  0  0  0  0  0  0  0  0  0  0  0
    2.0366   -1.9296   -1.9211 C   0  0  0  0  0  0  0  0  0  0  0  0
    0.5730    0.2945    1.0304 H   0  0  0  0  0  0  0  0  0  0  0  0
    0.5730    0.6641   -0.6774 H   0  0  0  0  0  0  0  0  0  0  0  0
    1.9997   -0.0137    0.0698 H   0  0  0  0  0  0  0  0  0  0  0  0
   -1.2773   -2.3253   -1.9162 H   0  0  0  0  0  0  0  0  0  0  0  0
   -0.5542   -3.8781   -3.7549 H   0  0  0  0  0  0  0  0  0  0  0  0
    2.6226   -3.6271   -5.6609 H   0  0  0  0  0  0  0  0  0  0  0  0
   -0.3468   -4.3425   -5.5494 H   0  0  0  0  0  0  0  0  0  0  0  0
    1.6844   -3.8528   -9.8214 H   0  0  0  0  0  0  0  0  0  0  0  0
    3.8864   -4.5081  -10.8395 H   0  0  0  0  0  0  0  0  0  0  0  0
    7.2840   -4.2447   -7.9344 H   0  0  0  0  0  0  0  0  0  0  0  0
    7.2231   -5.9316   -8.3859 H   0  0  0  0  0  0  0  0  0  0  0  0
    8.1730   -4.8085   -9.3290 H   0  0  0  0  0  0  0  0  0  0  0  0
    5.4407   -5.4321   -7.1320 H   0  0  0  0  0  0  0  0  0  0  0  0
    2.2650   -5.2567   -5.4055 H   0  0  0  0  0  0  0  0  0  0  0  0
    3.3535   -2.5957   -3.4389 H   0  0  0  0  0  0  0  0  0  0  0  0
    2.8056   -1.4146   -1.3841 H   0  0  0  0  0  0  0  0  0  0  0  0
  1  2  1  0  0  0  0
  1 22  1  0  0  0  0
  1 23  1  0  0  0  0
  1 24  1  0  0  0  0
  2  3  1  0  0  0  0
  3  4  1  0  0  0  0
  3 21  2  0  0  0  0
  4  5  2  0  0  0  0
  4 25  1  0  0  0  0
  5  6  1  0  0  0  0
  5 26  1  0  0  0  0
  6  7  1  0  0  0  0
  6 20  2  0  0  0  0
  7  8  2  0  0  0  0
  7 27  1  0  0  0  0
  8  9  1  0  0  0  0
  8 28  1  0  0  0  0
  9 10  2  0  0  0  0
  9 11  1  0  0  0  0
 11 12  1  0  0  0  0
 11 18  2  0  0  0  0
 12 13  2  0  0  0  0
 12 29  1  0  0  0  0
 13 14  1  0  0  0  0
 13 30  1  0  0  0  0
 14 15  1  0  0  0  0
 14 17  2  0  0  0  0
 15 16  1  0  0  0  0
 16 31  1  0  0  0  0
 16 32  1  0  0  0  0
 16 33  1  0  0  0  0
 17 18  1  0  0  0  0
 17 34  1  0  0  0  0
 18 19  1  0  0  0  0
 19 35  1  0  0  0  0
 20 21  1  0  0  0  0
 20 36  1  0  0  0  0
 21 37  1  0  0  0  0
M  END
