REMARK  Name = 
REMARK  10 active torsions:
REMARK  status: ('A' for Active; 'I' for Inactive)
REMARK    1  A    between atoms: C_1  and  O_2
REMARK    2  A    between atoms: O_2  and  C_3
REMARK    3  A    between atoms: C_5  and  C_6
REMARK    4  A    between atoms: C_7  and  C_8
REMARK    5  A    between atoms: C_8  and  C_10
REMARK    6  A    between atoms: C_10  and  C_11
REMARK    7  A    between atoms: C_11  and  C_12
REMARK    8  A    between atoms: C_12  and  C_13
REMARK    9  A    between atoms: C_13  and  C_14
REMARK   10  A    between atoms: C_22  and  O_23
REMARK                            x       y       z     vdW  Elec       q    Type
REMARK                         _______ _______ _______ _____ _____    ______ ____
ROOT
ATOM      1  C   UNL     1       0.026  -3.988   4.505  0.00  0.00    +0.000 C 
ATOM      2  C   UNL     1      -0.436  -3.071   5.398  0.00  0.00    +0.000 C 
ENDROOT
BRANCH   1   5
ATOM      3  C   UNL     1       0.723  -1.814   1.494  0.00  0.00    +0.000 A 
ATOM      4  C   UNL     1       0.360  -2.215   2.758  0.00  0.00    +0.000 A 
ATOM      5  C   UNL     1       0.448  -3.547   3.113  0.00  0.00    +0.000 A 
ATOM      6  C   UNL     1       0.915  -4.474   2.214  0.00  0.00    +0.000 A 
ATOM      7  C   UNL     1       1.309  -4.080   0.954  0.00  0.00    +0.000 A 
ATOM      8  C   UNL     1       1.234  -2.740   0.561  0.00  0.00    +0.000 A 
BRANCH   3  10
ATOM      9  C   UNL     1       1.065  -0.042  -0.064  0.00  0.00    +0.000 C 
ATOM     10  O   UNL     1       0.592  -0.502   1.194  0.00  0.00    +0.000 OA
ENDBRANCH   3  10
BRANCH   8  11
ATOM     11  O   UNL     1       1.656  -2.327  -0.730  0.00  0.00    +0.000 OA
ATOM     12  H   UNL     1       1.594  -1.364  -0.992  0.00  0.00    +0.000 HD
ENDBRANCH   8  11
ENDBRANCH   1   5
BRANCH   2  13
ATOM     13  C   UNL     1      -0.858  -3.512   6.790  0.00  0.00    +0.000 C 
ATOM     14  O   UNL     1      -1.290  -2.656   7.625  0.00  0.00    +0.000 OA
BRANCH  13  15
ATOM     15  C   UNL     1      -0.763  -4.977   7.185  0.00  0.00    +0.000 C 
BRANCH  15  16
ATOM     16  C   UNL     1      -1.633  -5.809   6.257  0.00  0.00    +0.000 C 
BRANCH  16  17
ATOM     17  C   UNL     1      -1.154  -5.638   4.824  0.00  0.00    +0.000 C 
BRANCH  17  18
ATOM     18  C   UNL     1       0.290  -6.100   4.715  0.00  0.00    +0.000 C 
BRANCH  18  19
ATOM     19  C   UNL     1       0.385  -7.565   5.109  0.00  0.00    +0.000 A 
ATOM     20  C   UNL     1       1.292  -8.408   4.489  0.00  0.00    +0.000 A 
ATOM     21  C   UNL     1       1.047  -9.783   4.719  0.00  0.00    +0.000 A 
ATOM     22  C   UNL     1       0.289 -10.256   5.691  0.00  0.00    +0.000 A 
ATOM     23  C   UNL     1      -0.536  -9.358   6.311  0.00  0.00    +0.000 A 
ATOM     24  C   UNL     1      -0.446  -8.014   6.043  0.00  0.00    +0.000 A 
ENDBRANCH  18  19
ENDBRANCH  17  18
ENDBRANCH  16  17
ENDBRANCH  15  16
ENDBRANCH  13  15
ENDBRANCH   2  13
TORSDOF 9
