REMARK  Name = 
REMARK  6 active torsions:
REMARK  status: ('A' for Active; 'I' for Inactive)
REMARK    1  A    between atoms: C_1  and  O_2
REMARK    2  A    between atoms: O_2  and  C_3
REMARK    3  A    between atoms: C_5  and  C_6
REMARK    4  A    between atoms: C_7  and  C_8
REMARK    5  A    between atoms: C_15  and  O_16
REMARK    6  A    between atoms: O_16  and  C_17
REMARK                            x       y       z     vdW  Elec       q    Type
REMARK                         _______ _______ _______ _____ _____    ______ ____
ROOT
ATOM      1  C   UNL     1       0.946  -1.554  -1.914  0.00  0.00    +0.000 A 
ATOM      2  C   UNL     1      -0.073  -1.964  -2.758  0.00  0.00    +0.000 A 
ATOM      3  C   UNL     1       0.380  -2.497  -3.988  0.00  0.00    +0.000 A 
ATOM      4  C   UNL     1       1.590  -2.313  -4.483  0.00  0.00    +0.000 A 
ATOM      5  C   UNL     1       2.537  -1.841  -3.616  0.00  0.00    +0.000 A 
ATOM      6  C   UNL     1       2.192  -1.424  -2.353  0.00  0.00    +0.000 A 
ENDROOT
BRANCH   1   8
ATOM      7  C   UNL     1       1.076   0.043  -0.049  0.00  0.00    +0.000 C 
ATOM      8  O   UNL     1       0.603  -1.182  -0.587  0.00  0.00    +0.000 OA
ENDBRANCH   1   8
BRANCH   3   9
ATOM      9  C   UNL     1      -0.594  -3.338  -4.796  0.00  0.00    +0.000 C 
ATOM     10  C   UNL     1      -1.853  -3.557  -4.330  0.00  0.00    +0.000 C 
BRANCH  10  11
ATOM     11  C   UNL     1      -2.827  -4.399  -5.138  0.00  0.00    +0.000 A 
ATOM     12  C   UNL     1      -4.122  -3.980  -5.396  0.00  0.00    +0.000 A 
ATOM     13  C   UNL     1      -4.943  -4.977  -5.974  0.00  0.00    +0.000 A 
ATOM     14  C   UNL     1      -4.492  -6.073  -6.558  0.00  0.00    +0.000 A 
ATOM     15  C   UNL     1      -3.185  -6.396  -6.319  0.00  0.00    +0.000 A 
ATOM     16  C   UNL     1      -2.355  -5.531  -5.647  0.00  0.00    +0.000 A 
ENDBRANCH  10  11
ENDBRANCH   3   9
BRANCH   5  17
ATOM     17  O   UNL     1       3.894  -1.780  -4.027  0.00  0.00    +0.000 OA
ATOM     18  C   UNL     1       4.885  -1.291  -3.135  0.00  0.00    +0.000 C 
ENDBRANCH   5  17
TORSDOF 4
