
 OpenBabel09262513003D

 31 32  0  0  0  0  0  0  0  0999 V2000
    1.0393    0.0734   -0.0553 C   0  0  0  0  0  0  0  0  0  0  0  0
    0.5660    1.3721    0.2702 O   0  0  0  0  0  0  0  0  0  0  0  0
   -0.5528    1.5758    1.0021 C   0  0  0  0  0  0  0  0  0  0  0  0
   -0.8926    2.8756    1.2927 C   0  0  0  0  0  0  0  0  0  0  0  0
   -2.0391    3.1463    2.0143 C   0  0  0  0  0  0  0  0  0  0  0  0
   -2.3964    4.4915    2.2954 O   0  0  0  0  0  0  0  0  0  0  0  0
   -2.8352    2.1195    2.4611 C   0  0  0  0  0  0  0  0  0  0  0  0
   -2.4891    0.8116    2.2016 C   0  0  0  0  0  0  0  0  0  0  0  0
   -3.3747   -0.3124    2.7142 C   0  0  0  0  0  0  0  0  0  0  0  0
   -4.4991   -0.0230    3.4231 C   0  0  0  0  0  0  0  0  0  0  0  0
   -5.3847   -1.1470    3.9357 C   0  0  0  0  0  0  0  0  0  0  0  0
   -6.7655   -1.0757    3.8516 C   0  0  0  0  0  0  0  0  0  0  0  0
   -7.4387   -2.0167    4.6660 C   0  0  0  0  0  0  0  0  0  0  0  0
   -6.8800   -3.0967    5.1812 C   0  0  0  0  0  0  0  0  0  0  0  0
   -5.5134   -3.1373    5.1729 C   0  0  0  0  0  0  0  0  0  0  0  0
   -4.7821   -2.1817    4.5096 C   0  0  0  0  0  0  0  0  0  0  0  0
   -1.3354    0.5017    1.4739 C   0  0  0  0  0  0  0  0  0  0  0  0
    0.6826   -0.2034   -1.0254 H   0  0  0  0  0  0  0  0  0  0  0  0
    0.6826   -0.6282    0.6695 H   0  0  0  0  0  0  0  0  0  0  0  0
    2.1093    0.0734   -0.0553 H   0  0  0  0  0  0  0  0  0  0  0  0
   -0.2685    3.6784    0.9598 H   0  0  0  0  0  0  0  0  0  0  0  0
   -3.2259    4.6899    2.8176 H   0  0  0  0  0  0  0  0  0  0  0  0
   -3.7264    2.3363    3.0120 H   0  0  0  0  0  0  0  0  0  0  0  0
   -3.1137   -1.3313    2.5175 H   0  0  0  0  0  0  0  0  0  0  0  0
   -4.7601    0.9959    3.6198 H   0  0  0  0  0  0  0  0  0  0  0  0
   -7.2766   -0.3728    3.2275 H   0  0  0  0  0  0  0  0  0  0  0  0
   -8.4725   -1.8411    4.8792 H   0  0  0  0  0  0  0  0  0  0  0  0
   -7.4654   -3.8971    5.5834 H   0  0  0  0  0  0  0  0  0  0  0  0
   -5.0060   -3.9244    5.6906 H   0  0  0  0  0  0  0  0  0  0  0  0
   -3.7173   -2.2723    4.4548 H   0  0  0  0  0  0  0  0  0  0  0  0
   -1.0568   -0.5134    1.2821 H   0  0  0  0  0  0  0  0  0  0  0  0
  1  2  1  0  0  0  0
  1 18  1  0  0  0  0
  1 19  1  0  0  0  0
  1 20  1  0  0  0  0
  2  3  1  0  0  0  0
  3  4  1  0  0  0  0
  3 17  2  0  0  0  0
  4  5  2  0  0  0  0
  4 21  1  0  0  0  0
  5  6  1  0  0  0  0
  5  7  1  0  0  0  0
  6 22  1  0  0  0  0
  7  8  2  0  0  0  0
  7 23  1  0  0  0  0
  8  9  1  0  0  0  0
  8 17  1  0  0  0  0
  9 10  2  0  0  0  0
  9 24  1  0  0  0  0
 10 11  1  0  0  0  0
 10 25  1  0  0  0  0
 11 12  1  0  0  0  0
 11 16  2  0  0  0  0
 12 13  2  0  0  0  0
 12 26  1  0  0  0  0
 13 14  1  0  0  0  0
 13 27  1  0  0  0  0
 14 15  2  0  0  0  0
 14 28  1  0  0  0  0
 15 16  1  0  0  0  0
 15 29  1  0  0  0  0
 16 30  1  0  0  0  0
 17 31  1  0  0  0  0
M  END
