
 OpenBabel09262513003D

 34 35  0  0  0  0  0  0  0  0999 V2000
    0.9676    0.0658   -0.0680 C   0  0  0  0  0  0  0  0  0  0  0  0
    0.4943    0.2367    1.2598 O   0  0  0  0  0  0  0  0  0  0  0  0
    0.1438   -0.8400    1.9993 C   0  0  0  0  0  0  0  0  0  0  0  0
   -0.2828   -0.6139    3.2862 C   0  0  0  0  0  0  0  0  0  0  0  0
   -0.6792   -1.6728    4.0799 C   0  0  0  0  0  0  0  0  0  0  0  0
   -0.6317   -2.9576    3.5955 C   0  0  0  0  0  0  0  0  0  0  0  0
   -1.0814   -4.1152    4.4719 C   0  0  0  0  0  0  0  0  0  0  0  0
   -1.5005   -3.8939    5.6512 O   0  0  0  0  0  0  0  0  0  0  0  0
   -1.0297   -5.5374    3.9380 C   0  0  0  0  0  0  0  0  0  0  0  0
   -0.5811   -5.7742    2.6758 C   0  0  0  0  0  0  0  0  0  0  0  0
   -0.5294   -7.1964    2.1419 C   0  0  0  0  0  0  0  0  0  0  0  0
   -1.5902   -8.0547    2.3312 C   0  0  0  0  0  0  0  0  0  0  0  0
   -1.5738   -9.3493    1.8016 C   0  0  0  0  0  0  0  0  0  0  0  0
   -0.4419   -9.7345    1.0537 C   0  0  0  0  0  0  0  0  0  0  0  0
   -0.3491  -10.9577    0.4845 O   0  0  0  0  0  0  0  0  0  0  0  0
    0.6228   -8.8794    0.8969 C   0  0  0  0  0  0  0  0  0  0  0  0
    0.5737   -7.6074    1.4335 C   0  0  0  0  0  0  0  0  0  0  0  0
   -0.1777   -3.1995    2.3176 C   0  0  0  0  0  0  0  0  0  0  0  0
   -0.1238   -4.5343    1.8360 O   0  0  0  0  0  0  0  0  0  0  0  0
    0.2310   -2.1509    1.4869 C   0  0  0  0  0  0  0  0  0  0  0  0
    0.6110    0.8679   -0.6798 H   0  0  0  0  0  0  0  0  0  0  0  0
    0.6110   -0.8651   -0.4568 H   0  0  0  0  0  0  0  0  0  0  0  0
    2.0376    0.0658   -0.0680 H   0  0  0  0  0  0  0  0  0  0  0  0
   -0.3080    0.3832    3.6736 H   0  0  0  0  0  0  0  0  0  0  0  0
   -1.0246   -1.4917    5.0763 H   0  0  0  0  0  0  0  0  0  0  0  0
   -1.3463   -6.3523    4.5550 H   0  0  0  0  0  0  0  0  0  0  0  0
   -0.2645   -4.9593    2.0588 H   0  0  0  0  0  0  0  0  0  0  0  0
   -2.4400   -7.7260    2.8922 H   0  0  0  0  0  0  0  0  0  0  0  0
   -2.3904  -10.0228    1.9581 H   0  0  0  0  0  0  0  0  0  0  0  0
   -1.1018  -11.6097    0.5750 H   0  0  0  0  0  0  0  0  0  0  0  0
    1.4904   -9.1994    0.3586 H   0  0  0  0  0  0  0  0  0  0  0  0
    1.3983   -6.9394    1.2969 H   0  0  0  0  0  0  0  0  0  0  0  0
    0.2044   -4.7188    0.9096 H   0  0  0  0  0  0  0  0  0  0  0  0
    0.5966   -2.3367    0.4986 H   0  0  0  0  0  0  0  0  0  0  0  0
  1  2  1  0  0  0  0
  1 21  1  0  0  0  0
  1 22  1  0  0  0  0
  1 23  1  0  0  0  0
  2  3  1  0  0  0  0
  3  4  1  0  0  0  0
  3 20  2  0  0  0  0
  4  5  2  0  0  0  0
  4 24  1  0  0  0  0
  5  6  1  0  0  0  0
  5 25  1  0  0  0  0
  6  7  1  0  0  0  0
  6 18  2  0  0  0  0
  7  8  2  0  0  0  0
  7  9  1  0  0  0  0
  9 10  2  0  0  0  0
  9 26  1  0  0  0  0
 10 11  1  0  0  0  0
 10 27  1  0  0  0  0
 11 12  1  0  0  0  0
 11 17  2  0  0  0  0
 12 13  2  0  0  0  0
 12 28  1  0  0  0  0
 13 14  1  0  0  0  0
 13 29  1  0  0  0  0
 14 15  1  0  0  0  0
 14 16  2  0  0  0  0
 15 30  1  0  0  0  0
 16 17  1  0  0  0  0
 16 31  1  0  0  0  0
 17 32  1  0  0  0  0
 18 19  1  0  0  0  0
 18 20  1  0  0  0  0
 19 33  1  0  0  0  0
 20 34  1  0  0  0  0
M  END
