
 OpenBabel09262513003D

 34 35  0  0  0  0  0  0  0  0999 V2000
    1.0759    0.0435   -0.0485 C   0  0  0  0  0  0  0  0  0  0  0  0
    0.6026   -1.1821   -0.5874 O   0  0  0  0  0  0  0  0  0  0  0  0
    0.9456   -1.5537   -1.9143 C   0  0  0  0  0  0  0  0  0  0  0  0
   -0.0735   -1.9643   -2.7578 C   0  0  0  0  0  0  0  0  0  0  0  0
    0.3799   -2.4966   -3.9879 C   0  0  0  0  0  0  0  0  0  0  0  0
   -0.5941   -3.3384   -4.7960 C   0  0  0  0  0  0  0  0  0  0  0  0
   -1.8532   -3.5574   -4.3298 C   0  0  0  0  0  0  0  0  0  0  0  0
   -2.8272   -4.3992   -5.1379 C   0  0  0  0  0  0  0  0  0  0  0  0
   -4.1219   -3.9802   -5.3960 C   0  0  0  0  0  0  0  0  0  0  0  0
   -4.9427   -4.9774   -5.9739 C   0  0  0  0  0  0  0  0  0  0  0  0
   -4.4919   -6.0726   -6.5582 C   0  0  0  0  0  0  0  0  0  0  0  0
   -3.1851   -6.3958   -6.3187 C   0  0  0  0  0  0  0  0  0  0  0  0
   -2.3550   -5.5310   -5.6472 C   0  0  0  0  0  0  0  0  0  0  0  0
    1.5904   -2.3128   -4.4827 C   0  0  0  0  0  0  0  0  0  0  0  0
    2.5365   -1.8406   -3.6159 C   0  0  0  0  0  0  0  0  0  0  0  0
    3.8943   -1.7801   -4.0270 O   0  0  0  0  0  0  0  0  0  0  0  0
    4.8852   -1.2914   -3.1349 C   0  0  0  0  0  0  0  0  0  0  0  0
    2.1923   -1.4239   -2.3526 C   0  0  0  0  0  0  0  0  0  0  0  0
    0.7192    0.1535    0.9543 H   0  0  0  0  0  0  0  0  0  0  0  0
    0.7192    0.8569   -0.6452 H   0  0  0  0  0  0  0  0  0  0  0  0
    2.1459    0.0435   -0.0485 H   0  0  0  0  0  0  0  0  0  0  0  0
   -1.1096   -1.8861   -2.5023 H   0  0  0  0  0  0  0  0  0  0  0  0
   -0.2894   -3.7588   -5.7316 H   0  0  0  0  0  0  0  0  0  0  0  0
   -2.1579   -3.1370   -3.3942 H   0  0  0  0  0  0  0  0  0  0  0  0
   -4.4699   -2.9921   -5.1782 H   0  0  0  0  0  0  0  0  0  0  0  0
   -6.0024   -4.8342   -5.9348 H   0  0  0  0  0  0  0  0  0  0  0  0
   -5.1157   -6.6746   -7.1854 H   0  0  0  0  0  0  0  0  0  0  0  0
   -2.8035   -7.3357   -6.6590 H   0  0  0  0  0  0  0  0  0  0  0  0
   -1.3186   -5.7716   -5.5337 H   0  0  0  0  0  0  0  0  0  0  0  0
    1.8186   -2.5222   -5.5069 H   0  0  0  0  0  0  0  0  0  0  0  0
    4.6528   -0.2835   -2.8611 H   0  0  0  0  0  0  0  0  0  0  0  0
    4.9079   -1.9032   -2.2573 H   0  0  0  0  0  0  0  0  0  0  0  0
    5.8415   -1.3194   -3.6140 H   0  0  0  0  0  0  0  0  0  0  0  0
    2.9356   -0.9909   -1.7163 H   0  0  0  0  0  0  0  0  0  0  0  0
  1  2  1  0  0  0  0
  1 19  1  0  0  0  0
  1 20  1  0  0  0  0
  1 21  1  0  0  0  0
  2  3  1  0  0  0  0
  3  4  1  0  0  0  0
  3 18  2  0  0  0  0
  4  5  2  0  0  0  0
  4 22  1  0  0  0  0
  5  6  1  0  0  0  0
  5 14  1  0  0  0  0
  6  7  2  0  0  0  0
  6 23  1  0  0  0  0
  7  8  1  0  0  0  0
  7 24  1  0  0  0  0
  8  9  1  0  0  0  0
  8 13  2  0  0  0  0
  9 10  2  0  0  0  0
  9 25  1  0  0  0  0
 10 11  1  0  0  0  0
 10 26  1  0  0  0  0
 11 12  2  0  0  0  0
 11 27  1  0  0  0  0
 12 13  1  0  0  0  0
 12 28  1  0  0  0  0
 13 29  1  0  0  0  0
 14 15  2  0  0  0  0
 14 30  1  0  0  0  0
 15 16  1  0  0  0  0
 15 18  1  0  0  0  0
 16 17  1  0  0  0  0
 17 31  1  0  0  0  0
 17 32  1  0  0  0  0
 17 33  1  0  0  0  0
 18 34  1  0  0  0  0
M  END
