REMARK  Name = 
REMARK  5 active torsions:
REMARK  status: ('A' for Active; 'I' for Inactive)
REMARK    1  A    between atoms: C_1  and  O_2
REMARK    2  A    between atoms: O_2  and  C_3
REMARK    3  A    between atoms: C_6  and  C_7
REMARK    4  A    between atoms: C_19  and  O_20
REMARK    5  A    between atoms: O_20  and  C_21
REMARK                            x       y       z     vdW  Elec       q    Type
REMARK                         _______ _______ _______ _____ _____    ______ ____
ROOT
ATOM      1  C   UNL     1       2.035  -5.767   3.088  0.00  0.00    +0.000 A 
ATOM      2  C   UNL     1       3.369  -6.264   2.866  0.00  0.00    +0.000 A 
ATOM      3  C   UNL     1       4.352  -5.429   2.228  0.00  0.00    +0.000 A 
ATOM      4  O   UNL     1       5.529  -5.868   2.032  0.00  0.00    +0.000 OA
ATOM      5  C   UNL     1       3.984  -4.021   1.788  0.00  0.00    +0.000 A 
ATOM      6  C   UNL     1       4.371  -3.667   0.506  0.00  0.00    +0.000 A 
ATOM      7  C   UNL     1       4.235  -2.287   0.226  0.00  0.00    +0.000 A 
ATOM      8  C   UNL     1       3.493  -1.450   0.929  0.00  0.00    +0.000 A 
ATOM      9  C   UNL     1       3.084  -1.885   2.159  0.00  0.00    +0.000 A 
ATOM     10  C   UNL     1       3.297  -3.183   2.556  0.00  0.00    +0.000 A 
ATOM     11  O   UNL     1       1.116  -6.547   3.684  0.00  0.00    +0.000 OA
ENDROOT
BRANCH   1  15
ATOM     12  C   UNL     1       0.933  -1.902   1.642  0.00  0.00    +0.000 A 
ATOM     13  C   UNL     1      -0.048  -2.711   2.191  0.00  0.00    +0.000 A 
ATOM     14  C   UNL     1       0.455  -3.867   2.833  0.00  0.00    +0.000 A 
ATOM     15  C   UNL     1       1.667  -4.359   2.648  0.00  0.00    +0.000 A 
ATOM     16  C   UNL     1       2.571  -3.535   2.038  0.00  0.00    +0.000 A 
ATOM     17  C   UNL     1       2.181  -2.331   1.502  0.00  0.00    +0.000 A 
BRANCH  12  19
ATOM     18  C   UNL     1       1.063  -0.009   0.077  0.00  0.00    +0.000 C 
ATOM     19  O   UNL     1       0.590  -0.569   1.293  0.00  0.00    +0.000 OA
ENDBRANCH  12  19
BRANCH  17  20
ATOM     20  O   UNL     1       3.122  -1.540   0.792  0.00  0.00    +0.000 OA
ATOM     21  C   UNL     1       2.726  -0.295   0.235  0.00  0.00    +0.000 C 
ENDBRANCH  17  20
ENDBRANCH   1  15
TORSDOF 3
