REMARK  Name = 
REMARK  11 active torsions:
REMARK  status: ('A' for Active; 'I' for Inactive)
REMARK    1  A    between atoms: C_1  and  O_2
REMARK    2  A    between atoms: O_2  and  C_3
REMARK    3  A    between atoms: C_6  and  C_7
REMARK    4  A    between atoms: C_8  and  C_9
REMARK    5  A    between atoms: C_9  and  C_11
REMARK    6  A    between atoms: C_13  and  O_14
REMARK    7  A    between atoms: O_14  and  C_15
REMARK    8  A    between atoms: C_16  and  O_17
REMARK    9  A    between atoms: O_17  and  C_18
REMARK   10  A    between atoms: C_19  and  O_20
REMARK   11  A    between atoms: O_20  and  C_21
REMARK                            x       y       z     vdW  Elec       q    Type
REMARK                         _______ _______ _______ _____ _____    ______ ____
ROOT
ATOM      1  C   UNL     1       1.445  -1.783  -8.610  0.00  0.00    +0.000 C 
ATOM      2  O   UNL     1       0.576  -2.104  -9.480  0.00  0.00    +0.000 OA
ENDROOT
BRANCH   1   3
ATOM      3  C   UNL     1       2.860  -1.434  -9.042  0.00  0.00    +0.000 A 
ATOM      4  C   UNL     1       3.056  -0.591 -10.123  0.00  0.00    +0.000 A 
ATOM      5  C   UNL     1       4.388  -0.571 -10.601  0.00  0.00    +0.000 A 
ATOM      6  C   UNL     1       5.435  -0.997  -9.918  0.00  0.00    +0.000 A 
ATOM      7  C   UNL     1       5.173  -1.770  -8.821  0.00  0.00    +0.000 A 
ATOM      8  C   UNL     1       3.886  -1.942  -8.370  0.00  0.00    +0.000 A 
BRANCH   5   9
ATOM      9  O   UNL     1       4.614  -0.059 -11.906  0.00  0.00    +0.000 OA
ATOM     10  C   UNL     1       5.931  -0.017 -12.434  0.00  0.00    +0.000 C 
ENDBRANCH   5   9
BRANCH   6  11
ATOM     11  O   UNL     1       6.762  -0.669 -10.302  0.00  0.00    +0.000 OA
ATOM     12  C   UNL     1       7.861  -1.147  -9.540  0.00  0.00    +0.000 C 
ENDBRANCH   6  11
BRANCH   7  13
ATOM     13  O   UNL     1       6.245  -2.403  -8.139  0.00  0.00    +0.000 OA
ATOM     14  C   UNL     1       5.984  -3.208  -6.998  0.00  0.00    +0.000 C 
ENDBRANCH   7  13
ENDBRANCH   1   3
BRANCH   1  16
ATOM     15  C   UNL     1       2.000  -1.404  -6.207  0.00  0.00    +0.000 C 
ATOM     16  C   UNL     1       1.070  -1.748  -7.138  0.00  0.00    +0.000 C 
BRANCH  15  20
ATOM     17  C   UNL     1       0.882  -1.078  -2.097  0.00  0.00    +0.000 A 
ATOM     18  C   UNL     1      -0.099  -1.364  -3.033  0.00  0.00    +0.000 A 
ATOM     19  C   UNL     1       0.406  -1.665  -4.319  0.00  0.00    +0.000 A 
ATOM     20  C   UNL     1       1.625  -1.369  -4.734  0.00  0.00    +0.000 A 
ATOM     21  C   UNL     1       2.530  -1.029  -3.768  0.00  0.00    +0.000 A 
ATOM     22  C   UNL     1       2.137  -0.844  -2.464  0.00  0.00    +0.000 A 
BRANCH  17  24
ATOM     23  C   UNL     1       1.012   0.029   0.095  0.00  0.00    +0.000 C 
ATOM     24  O   UNL     1       0.539  -1.033  -0.720  0.00  0.00    +0.000 OA
ENDBRANCH  17  24
ENDBRANCH  15  20
ENDBRANCH   1  16
TORSDOF 7
