REMARK  Name = 
REMARK  2 active torsions:
REMARK  status: ('A' for Active; 'I' for Inactive)
REMARK    1  A    between atoms: C_4  and  C_7
REMARK    2  A    between atoms: C_12  and  O_18
REMARK                            x       y       z     vdW  Elec       q    Type
REMARK                         _______ _______ _______ _____ _____    ______ ____
ROOT
ATOM      1  C   UNL     1      -2.862   0.474  -0.214  0.00  0.00    +0.000 A 
ATOM      2  C   UNL     1      -3.770  -0.637  -0.337  0.00  0.00    +0.000 A 
ATOM      3  C   UNL     1      -3.267  -1.986  -0.296  0.00  0.00    +0.000 A 
ATOM      4  O   UNL     1      -4.069  -2.966  -0.404  0.00  0.00    +0.000 OA
ATOM      5  C   UNL     1      -1.778  -2.237  -0.123  0.00  0.00    +0.000 A 
ATOM      6  C   UNL     1      -1.151  -3.179  -0.921  0.00  0.00    +0.000 A 
ATOM      7  C   UNL     1       0.146  -3.533  -0.478  0.00  0.00    +0.000 A 
ATOM      8  C   UNL     1       0.869  -2.822   0.367  0.00  0.00    +0.000 A 
ATOM      9  C   UNL     1       0.204  -1.861   1.077  0.00  0.00    +0.000 A 
ATOM     10  C   UNL     1      -1.103  -1.549   0.791  0.00  0.00    +0.000 A 
ATOM     11  O   UNL     1      -3.332   1.734  -0.253  0.00  0.00    +0.000 OA
ENDROOT
BRANCH   1  15
ATOM     12  C   UNL     1       1.344  -0.225   0.036  0.00  0.00    +0.000 A 
ATOM     13  C   UNL     1       0.892   1.080  -0.070  0.00  0.00    +0.000 A 
ATOM     14  C   UNL     1      -0.509   1.215   0.075  0.00  0.00    +0.000 A 
ATOM     15  C   UNL     1      -1.373   0.223  -0.041  0.00  0.00    +0.000 A 
ATOM     16  C   UNL     1      -0.856  -1.042   0.003  0.00  0.00    +0.000 A 
ATOM     17  C   UNL     1       0.502  -1.251  -0.004  0.00  0.00    +0.000 A 
ENDBRANCH   1  15
BRANCH   6  18
ATOM     18  O   UNL     1      -1.754  -3.740  -2.078  0.00  0.00    +0.000 OA
ATOM     19  H   UNL     1      -2.674  -3.456  -2.349  0.00  0.00    +0.000 HD
ENDBRANCH   6  18
TORSDOF 2
