
 OpenBabel09262513003D

 35 37  0  0  0  0  0  0  0  0999 V2000
    0.9525    0.0159   -0.0866 C   0  0  0  0  0  0  0  0  0  0  0  0
    0.4792   -0.1890    1.2365 O   0  0  0  0  0  0  0  0  0  0  0  0
    0.8222   -1.3752    1.9375 C   0  0  0  0  0  0  0  0  0  0  0  0
   -0.1258   -1.9646    2.7576 C   0  0  0  0  0  0  0  0  0  0  0  0
    0.4199   -2.8311    3.7340 C   0  0  0  0  0  0  0  0  0  0  0  0
    1.6365   -3.3425    3.6855 C   0  0  0  0  0  0  0  0  0  0  0  0
    2.0206   -4.4385    4.5027 O   0  0  0  0  0  0  0  0  0  0  0  0
    3.3394   -4.9584    4.4194 C   0  0  0  0  0  0  0  0  0  0  0  0
    2.5064   -2.7600    2.8061 C   0  0  0  0  0  0  0  0  0  0  0  0
    3.9708   -3.1673    2.8202 C   0  0  0  0  0  0  0  0  0  0  0  0
    4.8960   -2.5603    1.8984 C   0  0  0  0  0  0  0  0  0  0  0  0
    4.4337   -1.5674    0.9632 C   0  0  0  0  0  0  0  0  0  0  0  0
    5.2501   -1.0317    0.1498 O   0  0  0  0  0  0  0  0  0  0  0  0
    2.9694   -1.1601    0.9491 C   0  0  0  0  0  0  0  0  0  0  0  0
    2.3061   -1.0436   -0.2613 C   0  0  0  0  0  0  0  0  0  0  0  0
    1.0571   -0.3850   -0.1696 C   0  0  0  0  0  0  0  0  0  0  0  0
    0.3841   -0.2087    0.9529 C   0  0  0  0  0  0  0  0  0  0  0  0
    1.0773   -0.4054    2.1149 C   0  0  0  0  0  0  0  0  0  0  0  0
    2.3502   -0.9226    2.0995 C   0  0  0  0  0  0  0  0  0  0  0  0
    4.4027   -4.0949    3.6939 O   0  0  0  0  0  0  0  0  0  0  0  0
    2.0760   -1.8118    1.9097 C   0  0  0  0  0  0  0  0  0  0  0  0
    0.5958    0.9565   -0.4513 H   0  0  0  0  0  0  0  0  0  0  0  0
    0.5959   -0.7703   -0.7187 H   0  0  0  0  0  0  0  0  0  0  0  0
    2.0225    0.0159   -0.0866 H   0  0  0  0  0  0  0  0  0  0  0  0
   -1.1756   -1.7812    2.6614 H   0  0  0  0  0  0  0  0  0  0  0  0
   -0.1960   -3.0901    4.5698 H   0  0  0  0  0  0  0  0  0  0  0  0
    3.5253   -5.3012    3.4231 H   0  0  0  0  0  0  0  0  0  0  0  0
    4.0418   -4.1909    4.6694 H   0  0  0  0  0  0  0  0  0  0  0  0
    3.4447   -5.7747    5.1031 H   0  0  0  0  0  0  0  0  0  0  0  0
    5.9268   -2.8470    1.9083 H   0  0  0  0  0  0  0  0  0  0  0  0
    2.7023   -1.4176   -1.1822 H   0  0  0  0  0  0  0  0  0  0  0  0
    0.6281   -0.0034   -1.0725 H   0  0  0  0  0  0  0  0  0  0  0  0
   -0.6482    0.0730    0.9530 H   0  0  0  0  0  0  0  0  0  0  0  0
    0.6220   -0.1529    3.0497 H   0  0  0  0  0  0  0  0  0  0  0  0
    2.7572   -1.4215    1.1827 H   0  0  0  0  0  0  0  0  0  0  0  0
  1  2  1  0  0  0  0
  1 22  1  0  0  0  0
  1 23  1  0  0  0  0
  1 24  1  0  0  0  0
  2  3  1  0  0  0  0
  3  4  1  0  0  0  0
  3 21  2  0  0  0  0
  4  5  2  0  0  0  0
  4 25  1  0  0  0  0
  5  6  1  0  0  0  0
  5 26  1  0  0  0  0
  6  7  1  0  0  0  0
  6  9  2  0  0  0  0
  7  8  1  0  0  0  0
  8 27  1  0  0  0  0
  8 28  1  0  0  0  0
  8 29  1  0  0  0  0
  9 10  1  0  0  0  0
  9 21  1  0  0  0  0
 10 11  2  0  0  0  0
 10 20  1  0  0  0  0
 11 12  1  0  0  0  0
 11 30  1  0  0  0  0
 12 13  2  0  0  0  0
 12 14  1  0  0  0  0
 14 15  1  0  0  0  0
 14 19  2  0  0  0  0
 15 16  2  0  0  0  0
 15 31  1  0  0  0  0
 16 17  1  0  0  0  0
 16 32  1  0  0  0  0
 17 18  2  0  0  0  0
 17 33  1  0  0  0  0
 18 19  1  0  0  0  0
 18 34  1  0  0  0  0
 19 20  1  0  0  0  0
 21 35  1  0  0  0  0
M  END
