
 OpenBabel09262513003D

 34 35  0  0  0  0  0  0  0  0999 V2000
    0.9511    0.0824    0.0286 C   0  0  0  0  0  0  0  0  0  0  0  0
    0.4778    1.2745    0.6379 O   0  0  0  0  0  0  0  0  0  0  0  0
    0.8208    1.5684    1.9841 C   0  0  0  0  0  0  0  0  0  0  0  0
   -0.1380    2.0898    2.8370 C   0  0  0  0  0  0  0  0  0  0  0  0
    0.3956    2.6795    4.0073 C   0  0  0  0  0  0  0  0  0  0  0  0
    1.6157    2.4649    4.4647 C   0  0  0  0  0  0  0  0  0  0  0  0
    2.0182    2.8429    5.8808 C   0  0  0  0  0  0  0  0  0  0  0  0
    1.1109    3.4189    6.7150 C   0  0  0  0  0  0  0  0  0  0  0  0
    1.5134    3.7969    8.1312 C   0  0  0  0  0  0  0  0  0  0  0  0
    0.6658    4.3350    8.9105 O   0  0  0  0  0  0  0  0  0  0  0  0
    2.9296    3.5313    8.6153 C   0  0  0  0  0  0  0  0  0  0  0  0
    3.1238    2.9758    9.8693 C   0  0  0  0  0  0  0  0  0  0  0  0
    4.4600    3.0505   10.3286 C   0  0  0  0  0  0  0  0  0  0  0  0
    5.5064    3.2756    9.5551 C   0  0  0  0  0  0  0  0  0  0  0  0
    6.8322    3.0281    9.9994 O   0  0  0  0  0  0  0  0  0  0  0  0
    5.2445    3.7597    8.3035 C   0  0  0  0  0  0  0  0  0  0  0  0
    3.9565    3.8397    7.8320 C   0  0  0  0  0  0  0  0  0  0  0  0
    3.7213    4.2559    6.4949 O   0  0  0  0  0  0  0  0  0  0  0  0
    2.4975    1.8845    3.5958 C   0  0  0  0  0  0  0  0  0  0  0  0
    2.0774    1.4018    2.3799 C   0  0  0  0  0  0  0  0  0  0  0  0
    0.5945    0.0309   -0.9789 H   0  0  0  0  0  0  0  0  0  0  0  0
    0.5945   -0.7643    0.5769 H   0  0  0  0  0  0  0  0  0  0  0  0
    2.0211    0.0824    0.0286 H   0  0  0  0  0  0  0  0  0  0  0  0
   -1.1869    2.0503    2.6296 H   0  0  0  0  0  0  0  0  0  0  0  0
   -0.2333    3.3456    4.5603 H   0  0  0  0  0  0  0  0  0  0  0  0
    3.0151    2.6560    6.2217 H   0  0  0  0  0  0  0  0  0  0  0  0
    0.1141    3.6058    6.3742 H   0  0  0  0  0  0  0  0  0  0  0  0
    2.3349    2.5307   10.4388 H   0  0  0  0  0  0  0  0  0  0  0  0
    4.6347    2.9151   11.3756 H   0  0  0  0  0  0  0  0  0  0  0  0
    7.6052    3.2082    9.3910 H   0  0  0  0  0  0  0  0  0  0  0  0
    6.0544    4.0809    7.6823 H   0  0  0  0  0  0  0  0  0  0  0  0
    2.7856    4.3157    6.1471 H   0  0  0  0  0  0  0  0  0  0  0  0
    3.5296    1.8050    3.8665 H   0  0  0  0  0  0  0  0  0  0  0  0
    2.7690    0.8870    1.7462 H   0  0  0  0  0  0  0  0  0  0  0  0
  1  2  1  0  0  0  0
  1 21  1  0  0  0  0
  1 22  1  0  0  0  0
  1 23  1  0  0  0  0
  2  3  1  0  0  0  0
  3  4  1  0  0  0  0
  3 20  2  0  0  0  0
  4  5  2  0  0  0  0
  4 24  1  0  0  0  0
  5  6  1  0  0  0  0
  5 25  1  0  0  0  0
  6  7  1  0  0  0  0
  6 19  2  0  0  0  0
  7  8  2  0  0  0  0
  7 26  1  0  0  0  0
  8  9  1  0  0  0  0
  8 27  1  0  0  0  0
  9 10  2  0  0  0  0
  9 11  1  0  0  0  0
 11 12  1  0  0  0  0
 11 17  2  0  0  0  0
 12 13  2  0  0  0  0
 12 28  1  0  0  0  0
 13 14  1  0  0  0  0
 13 29  1  0  0  0  0
 14 15  1  0  0  0  0
 14 16  2  0  0  0  0
 15 30  1  0  0  0  0
 16 17  1  0  0  0  0
 16 31  1  0  0  0  0
 17 18  1  0  0  0  0
 18 32  1  0  0  0  0
 19 20  1  0  0  0  0
 19 33  1  0  0  0  0
 20 34  1  0  0  0  0
M  END
