REMARK  Name = 
REMARK  5 active torsions:
REMARK  status: ('A' for Active; 'I' for Inactive)
REMARK    1  A    between atoms: C_1  and  O_2
REMARK    2  A    between atoms: O_2  and  C_3
REMARK    3  A    between atoms: C_6  and  O_7
REMARK    4  A    between atoms: O_7  and  C_8
REMARK    5  A    between atoms: C_9  and  C_10
REMARK                            x       y       z     vdW  Elec       q    Type
REMARK                         _______ _______ _______ _____ _____    ______ ____
ROOT
ATOM      1  C   UNL     1       3.971  -3.167   2.820  0.00  0.00    +0.000 A 
ATOM      2  C   UNL     1       4.896  -2.560   1.898  0.00  0.00    +0.000 A 
ATOM      3  C   UNL     1       4.434  -1.567   0.963  0.00  0.00    +0.000 A 
ATOM      4  O   UNL     1       5.250  -1.032   0.150  0.00  0.00    +0.000 OA
ATOM      5  C   UNL     1       2.969  -1.160   0.949  0.00  0.00    +0.000 A 
ATOM      6  C   UNL     1       2.306  -1.044  -0.261  0.00  0.00    +0.000 A 
ATOM      7  C   UNL     1       1.057  -0.385  -0.170  0.00  0.00    +0.000 A 
ATOM      8  C   UNL     1       0.384  -0.209   0.953  0.00  0.00    +0.000 A 
ATOM      9  C   UNL     1       1.077  -0.405   2.115  0.00  0.00    +0.000 A 
ATOM     10  C   UNL     1       2.350  -0.923   2.099  0.00  0.00    +0.000 A 
ATOM     11  O   UNL     1       4.403  -4.095   3.694  0.00  0.00    +0.000 OA
ENDROOT
BRANCH   1  16
ATOM     12  C   UNL     1       0.822  -1.375   1.938  0.00  0.00    +0.000 A 
ATOM     13  C   UNL     1      -0.126  -1.965   2.758  0.00  0.00    +0.000 A 
ATOM     14  C   UNL     1       0.420  -2.831   3.734  0.00  0.00    +0.000 A 
ATOM     15  C   UNL     1       1.637  -3.342   3.686  0.00  0.00    +0.000 A 
ATOM     16  C   UNL     1       2.506  -2.760   2.806  0.00  0.00    +0.000 A 
ATOM     17  C   UNL     1       2.076  -1.812   1.910  0.00  0.00    +0.000 A 
BRANCH  12  19
ATOM     18  C   UNL     1       0.953   0.016  -0.087  0.00  0.00    +0.000 C 
ATOM     19  O   UNL     1       0.479  -0.189   1.236  0.00  0.00    +0.000 OA
ENDBRANCH  12  19
BRANCH  15  20
ATOM     20  O   UNL     1       2.021  -4.439   4.503  0.00  0.00    +0.000 OA
ATOM     21  C   UNL     1       3.339  -4.958   4.419  0.00  0.00    +0.000 C 
ENDBRANCH  15  20
ENDBRANCH   1  16
TORSDOF 3
