
 OpenBabel09262513003D

 40 41  0  0  0  0  0  0  0  0999 V2000
    1.0798    0.0103    0.0594 C   0  0  0  0  0  0  0  0  0  0  0  0
    0.6064    0.0080   -1.2793 O   0  0  0  0  0  0  0  0  0  0  0  0
    0.9495    1.0715   -2.1555 C   0  0  0  0  0  0  0  0  0  0  0  0
    0.0204    1.7847   -2.8950 C   0  0  0  0  0  0  0  0  0  0  0  0
    0.5951    2.7044   -3.8038 C   0  0  0  0  0  0  0  0  0  0  0  0
    1.8400    3.1407   -3.7411 C   0  0  0  0  0  0  0  0  0  0  0  0
    2.3002    4.3635   -4.5179 C   0  0  0  0  0  0  0  0  0  0  0  0
    1.4784    4.9958   -5.2528 O   0  0  0  0  0  0  0  0  0  0  0  0
    3.7432    4.8300   -4.4158 C   0  0  0  0  0  0  0  0  0  0  0  0
    4.6229    4.1532   -3.6292 C   0  0  0  0  0  0  0  0  0  0  0  0
    6.0659    4.6197   -3.5271 C   0  0  0  0  0  0  0  0  0  0  0  0
    7.0872    3.6873   -3.6062 C   0  0  0  0  0  0  0  0  0  0  0  0
    8.3507    4.1861   -3.2103 C   0  0  0  0  0  0  0  0  0  0  0  0
    8.6549    5.4680   -3.1194 C   0  0  0  0  0  0  0  0  0  0  0  0
    7.6046    6.3434   -3.1150 C   0  0  0  0  0  0  0  0  0  0  0  0
    6.3241    5.9120   -3.3641 C   0  0  0  0  0  0  0  0  0  0  0  0
    2.6927    2.4332   -2.9400 C   0  0  0  0  0  0  0  0  0  0  0  0
    4.0799    2.7365   -2.9543 O   0  0  0  0  0  0  0  0  0  0  0  0
    4.9745    2.0081   -2.1264 C   0  0  0  0  0  0  0  0  0  0  0  0
    2.2267    1.4331   -2.1211 C   0  0  0  0  0  0  0  0  0  0  0  0
    3.1190    0.7803   -1.2301 O   0  0  0  0  0  0  0  0  0  0  0  0
    2.6442   -0.2542   -0.3810 C   0  0  0  0  0  0  0  0  0  0  0  0
    0.7231   -0.8625    0.5653 H   0  0  0  0  0  0  0  0  0  0  0  0
    0.7231    0.8848    0.5623 H   0  0  0  0  0  0  0  0  0  0  0  0
    2.1498    0.0103    0.0594 H   0  0  0  0  0  0  0  0  0  0  0  0
   -1.0360    1.6522   -2.7886 H   0  0  0  0  0  0  0  0  0  0  0  0
   -0.0219    3.0720   -4.5970 H   0  0  0  0  0  0  0  0  0  0  0  0
    4.0671    5.6908   -4.9626 H   0  0  0  0  0  0  0  0  0  0  0  0
    4.2989    3.2924   -3.0824 H   0  0  0  0  0  0  0  0  0  0  0  0
    6.9344    2.6812   -3.9367 H   0  0  0  0  0  0  0  0  0  0  0  0
    9.1128    3.4753   -2.9678 H   0  0  0  0  0  0  0  0  0  0  0  0
    9.6687    5.8035   -3.0527 H   0  0  0  0  0  0  0  0  0  0  0  0
    7.7824    7.3793   -2.9147 H   0  0  0  0  0  0  0  0  0  0  0  0
    5.5277    6.6238   -3.4273 H   0  0  0  0  0  0  0  0  0  0  0  0
    4.6933    2.1325   -1.1015 H   0  0  0  0  0  0  0  0  0  0  0  0
    4.9341    0.9703   -2.3839 H   0  0  0  0  0  0  0  0  0  0  0  0
    5.9702    2.3727   -2.2698 H   0  0  0  0  0  0  0  0  0  0  0  0
    1.8777    0.1324    0.2578 H   0  0  0  0  0  0  0  0  0  0  0  0
    2.2454   -1.0491   -0.9760 H   0  0  0  0  0  0  0  0  0  0  0  0
    3.4516   -0.6252    0.2150 H   0  0  0  0  0  0  0  0  0  0  0  0
  1  2  1  0  0  0  0
  1 23  1  0  0  0  0
  1 24  1  0  0  0  0
  1 25  1  0  0  0  0
  2  3  1  0  0  0  0
  3  4  1  0  0  0  0
  3 20  2  0  0  0  0
  4  5  2  0  0  0  0
  4 26  1  0  0  0  0
  5  6  1  0  0  0  0
  5 27  1  0  0  0  0
  6  7  1  0  0  0  0
  6 17  2  0  0  0  0
  7  8  2  0  0  0  0
  7  9  1  0  0  0  0
  9 10  2  0  0  0  0
  9 28  1  0  0  0  0
 10 11  1  0  0  0  0
 10 29  1  0  0  0  0
 11 12  1  0  0  0  0
 11 16  2  0  0  0  0
 12 13  2  0  0  0  0
 12 30  1  0  0  0  0
 13 14  1  0  0  0  0
 13 31  1  0  0  0  0
 14 15  2  0  0  0  0
 14 32  1  0  0  0  0
 15 16  1  0  0  0  0
 15 33  1  0  0  0  0
 16 34  1  0  0  0  0
 17 18  1  0  0  0  0
 17 20  1  0  0  0  0
 18 19  1  0  0  0  0
 19 35  1  0  0  0  0
 19 36  1  0  0  0  0
 19 37  1  0  0  0  0
 20 21  1  0  0  0  0
 21 22  1  0  0  0  0
 22 38  1  0  0  0  0
 22 39  1  0  0  0  0
 22 40  1  0  0  0  0
M  END
