REMARK  Name = 
REMARK  7 active torsions:
REMARK  status: ('A' for Active; 'I' for Inactive)
REMARK    1  A    between atoms: C_1  and  O_2
REMARK    2  A    between atoms: O_2  and  C_3
REMARK    3  A    between atoms: C_6  and  C_7
REMARK    4  A    between atoms: C_8  and  C_9
REMARK    5  A    between atoms: C_9  and  C_11
REMARK    6  A    between atoms: C_14  and  O_15
REMARK    7  A    between atoms: C_17  and  O_18
REMARK                            x       y       z     vdW  Elec       q    Type
REMARK                         _______ _______ _______ _____ _____    ______ ____
ROOT
ATOM      1  C   UNL     1       1.513   3.797   8.131  0.00  0.00    +0.000 C 
ATOM      2  O   UNL     1       0.666   4.335   8.911  0.00  0.00    +0.000 OA
ENDROOT
BRANCH   1   3
ATOM      3  C   UNL     1       2.930   3.531   8.615  0.00  0.00    +0.000 A 
ATOM      4  C   UNL     1       3.124   2.976   9.869  0.00  0.00    +0.000 A 
ATOM      5  C   UNL     1       4.460   3.050  10.329  0.00  0.00    +0.000 A 
ATOM      6  C   UNL     1       5.506   3.276   9.555  0.00  0.00    +0.000 A 
ATOM      7  C   UNL     1       5.245   3.760   8.303  0.00  0.00    +0.000 A 
ATOM      8  C   UNL     1       3.957   3.840   7.832  0.00  0.00    +0.000 A 
BRANCH   6   9
ATOM      9  O   UNL     1       6.832   3.028   9.999  0.00  0.00    +0.000 OA
ATOM     10  H   UNL     1       7.605   3.208   9.391  0.00  0.00    +0.000 HD
ENDBRANCH   6   9
BRANCH   8  11
ATOM     11  O   UNL     1       3.721   4.256   6.495  0.00  0.00    +0.000 OA
ATOM     12  H   UNL     1       2.786   4.316   6.147  0.00  0.00    +0.000 HD
ENDBRANCH   8  11
ENDBRANCH   1   3
BRANCH   1  14
ATOM     13  C   UNL     1       2.018   2.843   5.881  0.00  0.00    +0.000 C 
ATOM     14  C   UNL     1       1.111   3.419   6.715  0.00  0.00    +0.000 C 
BRANCH  13  18
ATOM     15  C   UNL     1       0.821   1.568   1.984  0.00  0.00    +0.000 A 
ATOM     16  C   UNL     1      -0.138   2.090   2.837  0.00  0.00    +0.000 A 
ATOM     17  C   UNL     1       0.396   2.679   4.007  0.00  0.00    +0.000 A 
ATOM     18  C   UNL     1       1.616   2.465   4.465  0.00  0.00    +0.000 A 
ATOM     19  C   UNL     1       2.498   1.885   3.596  0.00  0.00    +0.000 A 
ATOM     20  C   UNL     1       2.077   1.402   2.380  0.00  0.00    +0.000 A 
BRANCH  15  22
ATOM     21  C   UNL     1       0.951   0.082   0.029  0.00  0.00    +0.000 C 
ATOM     22  O   UNL     1       0.478   1.274   0.638  0.00  0.00    +0.000 OA
ENDBRANCH  15  22
ENDBRANCH  13  18
ENDBRANCH   1  14
TORSDOF 6
