REMARK  Name = 
REMARK  9 active torsions:
REMARK  status: ('A' for Active; 'I' for Inactive)
REMARK    1  A    between atoms: C_1  and  O_2
REMARK    2  A    between atoms: O_2  and  C_3
REMARK    3  A    between atoms: C_6  and  C_7
REMARK    4  A    between atoms: C_7  and  C_9
REMARK    5  A    between atoms: C_10  and  C_11
REMARK    6  A    between atoms: C_17  and  O_18
REMARK    7  A    between atoms: O_18  and  C_19
REMARK    8  A    between atoms: C_20  and  O_21
REMARK    9  A    between atoms: O_21  and  C_22
REMARK                            x       y       z     vdW  Elec       q    Type
REMARK                         _______ _______ _______ _____ _____    ______ ____
ROOT
ATOM      1  C   UNL     1       0.950   1.071  -2.155  0.00  0.00    +0.000 A 
ATOM      2  C   UNL     1       0.020   1.785  -2.895  0.00  0.00    +0.000 A 
ATOM      3  C   UNL     1       0.595   2.704  -3.804  0.00  0.00    +0.000 A 
ATOM      4  C   UNL     1       1.840   3.141  -3.741  0.00  0.00    +0.000 A 
ATOM      5  C   UNL     1       2.693   2.433  -2.940  0.00  0.00    +0.000 A 
ATOM      6  C   UNL     1       2.227   1.433  -2.121  0.00  0.00    +0.000 A 
ENDROOT
BRANCH   1   8
ATOM      7  C   UNL     1       1.080   0.010   0.059  0.00  0.00    +0.000 C 
ATOM      8  O   UNL     1       0.606   0.008  -1.279  0.00  0.00    +0.000 OA
ENDBRANCH   1   8
BRANCH   4   9
ATOM      9  C   UNL     1       2.300   4.364  -4.518  0.00  0.00    +0.000 C 
ATOM     10  O   UNL     1       1.478   4.996  -5.253  0.00  0.00    +0.000 OA
BRANCH   9  11
ATOM     11  C   UNL     1       3.743   4.830  -4.416  0.00  0.00    +0.000 C 
ATOM     12  C   UNL     1       4.623   4.153  -3.629  0.00  0.00    +0.000 C 
BRANCH  12  13
ATOM     13  C   UNL     1       6.066   4.620  -3.527  0.00  0.00    +0.000 A 
ATOM     14  C   UNL     1       7.087   3.687  -3.606  0.00  0.00    +0.000 A 
ATOM     15  C   UNL     1       8.351   4.186  -3.210  0.00  0.00    +0.000 A 
ATOM     16  C   UNL     1       8.655   5.468  -3.119  0.00  0.00    +0.000 A 
ATOM     17  C   UNL     1       7.605   6.343  -3.115  0.00  0.00    +0.000 A 
ATOM     18  C   UNL     1       6.324   5.912  -3.364  0.00  0.00    +0.000 A 
ENDBRANCH  12  13
ENDBRANCH   9  11
ENDBRANCH   4   9
BRANCH   5  19
ATOM     19  O   UNL     1       4.080   2.736  -2.954  0.00  0.00    +0.000 OA
ATOM     20  C   UNL     1       4.974   2.008  -2.126  0.00  0.00    +0.000 C 
ENDBRANCH   5  19
BRANCH   6  21
ATOM     21  O   UNL     1       3.119   0.780  -1.230  0.00  0.00    +0.000 OA
ATOM     22  C   UNL     1       2.644  -0.254  -0.381  0.00  0.00    +0.000 C 
ENDBRANCH   6  21
TORSDOF 6
