REMARK  Name = 
REMARK  8 active torsions:
REMARK  status: ('A' for Active; 'I' for Inactive)
REMARK    1  A    between atoms: C_1  and  O_2
REMARK    2  A    between atoms: O_2  and  C_3
REMARK    3  A    between atoms: C_6  and  C_7
REMARK    4  A    between atoms: C_8  and  C_9
REMARK    5  A    between atoms: C_9  and  C_11
REMARK    6  A    between atoms: C_14  and  O_15
REMARK    7  A    between atoms: O_15  and  C_16
REMARK    8  A    between atoms: C_18  and  O_19
REMARK                            x       y       z     vdW  Elec       q    Type
REMARK                         _______ _______ _______ _____ _____    ______ ____
ROOT
ATOM      1  C   UNL     1       0.916  -4.820  -7.354  0.00  0.00    +0.000 C 
ATOM      2  O   UNL     1      -0.019  -5.359  -8.025  0.00  0.00    +0.000 OA
ENDROOT
BRANCH   1   3
ATOM      3  C   UNL     1       2.314  -4.722  -7.943  0.00  0.00    +0.000 A 
ATOM      4  C   UNL     1       2.471  -4.305  -9.255  0.00  0.00    +0.000 A 
ATOM      5  C   UNL     1       3.767  -4.530  -9.776  0.00  0.00    +0.000 A 
ATOM      6  C   UNL     1       4.840  -4.765  -9.043  0.00  0.00    +0.000 A 
ATOM      7  C   UNL     1       4.620  -5.106  -7.737  0.00  0.00    +0.000 A 
ATOM      8  C   UNL     1       3.362  -5.037  -7.190  0.00  0.00    +0.000 A 
BRANCH   6   9
ATOM      9  O   UNL     1       6.150  -4.668  -9.581  0.00  0.00    +0.000 OA
ATOM     10  C   UNL     1       7.277  -4.929  -8.757  0.00  0.00    +0.000 C 
ENDBRANCH   6   9
BRANCH   8  11
ATOM     11  O   UNL     1       3.179  -5.306  -5.808  0.00  0.00    +0.000 OA
ATOM     12  H   UNL     1       2.265  -5.257  -5.405  0.00  0.00    +0.000 HD
ENDBRANCH   8  11
ENDBRANCH   1   3
BRANCH   1  14
ATOM     13  C   UNL     1       1.639  -3.696  -5.246  0.00  0.00    +0.000 C 
ATOM     14  C   UNL     1       0.637  -4.273  -5.964  0.00  0.00    +0.000 C 
BRANCH  13  18
ATOM     15  C   UNL     1       0.799  -1.952  -1.439  0.00  0.00    +0.000 A 
ATOM     16  C   UNL     1      -0.250  -2.472  -2.178  0.00  0.00    +0.000 A 
ATOM     17  C   UNL     1       0.159  -3.216  -3.310  0.00  0.00    +0.000 A 
ATOM     18  C   UNL     1       1.360  -3.149  -3.856  0.00  0.00    +0.000 A 
ATOM     19  C   UNL     1       2.338  -2.562  -3.103  0.00  0.00    +0.000 A 
ATOM     20  C   UNL     1       2.037  -1.930  -1.921  0.00  0.00    +0.000 A 
BRANCH  15  22
ATOM     21  C   UNL     1       0.930  -0.014   0.070  0.00  0.00    +0.000 C 
ATOM     22  O   UNL     1       0.456  -1.322  -0.213  0.00  0.00    +0.000 OA
ENDBRANCH  15  22
ENDBRANCH  13  18
ENDBRANCH   1  14
TORSDOF 6
