REMARK  Name = 
REMARK  5 active torsions:
REMARK  status: ('A' for Active; 'I' for Inactive)
REMARK    1  A    between atoms: C_1  and  O_2
REMARK    2  A    between atoms: O_2  and  C_3
REMARK    3  A    between atoms: C_5  and  O_6
REMARK    4  A    between atoms: O_6  and  C_7
REMARK    5  A    between atoms: C_9  and  C_10
REMARK                            x       y       z     vdW  Elec       q    Type
REMARK                         _______ _______ _______ _____ _____    ______ ____
ROOT
ATOM      1  C   UNL     1       4.029   2.164  -3.402  0.00  0.00    +0.000 A 
ATOM      2  C   UNL     1       4.949   1.570  -2.466  0.00  0.00    +0.000 A 
ATOM      3  C   UNL     1       4.463   0.667  -1.454  0.00  0.00    +0.000 A 
ATOM      4  O   UNL     1       5.275   0.143  -0.629  0.00  0.00    +0.000 OA
ATOM      5  C   UNL     1       2.981   0.342  -1.374  0.00  0.00    +0.000 A 
ATOM      6  C   UNL     1       2.352   0.342  -0.140  0.00  0.00    +0.000 A 
ATOM      7  C   UNL     1       1.068  -0.252  -0.151  0.00  0.00    +0.000 A 
ATOM      8  C   UNL     1       0.351  -0.466  -1.239  0.00  0.00    +0.000 A 
ATOM      9  C   UNL     1       1.015  -0.385  -2.431  0.00  0.00    +0.000 A 
ATOM     10  C   UNL     1       2.313   0.062  -2.487  0.00  0.00    +0.000 A 
ATOM     11  O   UNL     1       4.482   3.008  -4.347  0.00  0.00    +0.000 OA
ENDROOT
BRANCH   1  16
ATOM     12  C   UNL     1       0.819   0.607  -2.318  0.00  0.00    +0.000 A 
ATOM     13  C   UNL     1      -0.121   1.192  -3.150  0.00  0.00    +0.000 A 
ATOM     14  C   UNL     1       0.440   1.961  -4.197  0.00  0.00    +0.000 A 
ATOM     15  C   UNL     1       1.682   2.408  -4.215  0.00  0.00    +0.000 A 
ATOM     16  C   UNL     1       2.547   1.839  -3.322  0.00  0.00    +0.000 A 
ATOM     17  C   UNL     1       2.094   0.976  -2.353  0.00  0.00    +0.000 A 
BRANCH  12  19
ATOM     18  C   UNL     1       0.950  -0.076   0.042  0.00  0.00    +0.000 C 
ATOM     19  O   UNL     1       0.476  -0.298  -1.279  0.00  0.00    +0.000 OA
ENDBRANCH  12  19
BRANCH  14  20
ATOM     20  O   UNL     1      -0.392   2.275  -5.304  0.00  0.00    +0.000 OA
ATOM     21  C   UNL     1       0.122   3.045  -6.382  0.00  0.00    +0.000 C 
ENDBRANCH  14  20
ENDBRANCH   1  16
TORSDOF 3
