
 OpenBabel09262515163D

 45 46  0  0  0  0  0  0  0  0999 V2000
    0.9886   -0.0705    0.0700 C   0  0  0  0  0  0  0  0  0  0  0  0
    0.5153   -0.9081   -0.9744 O   0  0  0  0  0  0  0  0  0  0  0  0
    0.7737   -2.2312   -0.8672 C   0  0  0  0  0  0  0  0  0  0  0  0
    0.4744   -3.0255   -1.9483 C   0  0  0  0  0  0  0  0  0  0  0  0
    0.7412   -4.3803   -1.9066 C   0  0  0  0  0  0  0  0  0  0  0  0
    0.4275   -5.2508   -3.1125 C   0  0  0  0  0  0  0  0  0  0  0  0
   -0.1149   -4.6955   -4.2296 C   0  0  0  0  0  0  0  0  0  0  0  0
   -0.4286   -5.5660   -5.4355 C   0  0  0  0  0  0  0  0  0  0  0  0
   -0.9353   -5.0472   -6.4792 O   0  0  0  0  0  0  0  0  0  0  0  0
   -0.1363   -7.0570   -5.3932 C   0  0  0  0  0  0  0  0  0  0  0  0
    1.3496   -7.2756   -5.1591 C   0  0  0  0  0  0  0  0  0  0  0  0
    1.7528   -6.6425   -3.8373 C   0  0  0  0  0  0  0  0  0  0  0  0
    0.9625   -7.2818   -2.7073 C   0  0  0  0  0  0  0  0  0  0  0  0
    1.2548   -8.7729   -2.6649 C   0  0  0  0  0  0  0  0  0  0  0  0
    0.4871   -9.6615   -3.3995 C   0  0  0  0  0  0  0  0  0  0  0  0
    0.6969  -11.0185   -3.0581 C   0  0  0  0  0  0  0  0  0  0  0  0
    1.7443  -11.4701   -2.3925 C   0  0  0  0  0  0  0  0  0  0  0  0
    2.5021  -10.5349   -1.7440 C   0  0  0  0  0  0  0  0  0  0  0  0
    2.2744   -9.1919   -1.9247 C   0  0  0  0  0  0  0  0  0  0  0  0
    1.2890   -4.9442   -0.7798 C   0  0  0  0  0  0  0  0  0  0  0  0
    1.5657   -4.1634    0.3209 C   0  0  0  0  0  0  0  0  0  0  0  0
    1.3083   -2.7885    0.3128 C   0  0  0  0  0  0  0  0  0  0  0  0
    1.5757   -1.9831    1.4514 O   0  0  0  0  0  0  0  0  0  0  0  0
    0.6319   -0.4364    1.0101 H   0  0  0  0  0  0  0  0  0  0  0  0
    0.6319    0.9267   -0.0831 H   0  0  0  0  0  0  0  0  0  0  0  0
    2.0586   -0.0705    0.0700 H   0  0  0  0  0  0  0  0  0  0  0  0
    0.0342   -2.5941   -2.8229 H   0  0  0  0  0  0  0  0  0  0  0  0
    0.6333   -6.3004   -3.0826 H   0  0  0  0  0  0  0  0  0  0  0  0
   -0.3207   -3.6459   -4.2595 H   0  0  0  0  0  0  0  0  0  0  0  0
   -0.6926   -7.5071   -4.5977 H   0  0  0  0  0  0  0  0  0  0  0  0
   -0.4201   -7.5027   -6.3236 H   0  0  0  0  0  0  0  0  0  0  0  0
    1.5554   -8.3252   -5.1293 H   0  0  0  0  0  0  0  0  0  0  0  0
    1.9060   -6.8255   -5.9546 H   0  0  0  0  0  0  0  0  0  0  0  0
    2.7988   -6.7963   -3.6726 H   0  0  0  0  0  0  0  0  0  0  0  0
    1.5470   -5.5929   -3.8672 H   0  0  0  0  0  0  0  0  0  0  0  0
    1.2463   -6.8362   -1.7769 H   0  0  0  0  0  0  0  0  0  0  0  0
   -0.0835   -7.1280   -2.8721 H   0  0  0  0  0  0  0  0  0  0  0  0
   -0.2021   -9.3500   -4.1564 H   0  0  0  0  0  0  0  0  0  0  0  0
   -0.0448  -11.7282   -3.3602 H   0  0  0  0  0  0  0  0  0  0  0  0
    1.9869  -12.5118   -2.3624 H   0  0  0  0  0  0  0  0  0  0  0  0
    3.2838  -10.8534   -1.0864 H   0  0  0  0  0  0  0  0  0  0  0  0
    2.9245   -8.4774   -1.4646 H   0  0  0  0  0  0  0  0  0  0  0  0
    1.5012   -5.9927   -0.7572 H   0  0  0  0  0  0  0  0  0  0  0  0
    1.9840   -4.6157    1.1957 H   0  0  0  0  0  0  0  0  0  0  0  0
    1.3847   -1.0019    1.4257 H   0  0  0  0  0  0  0  0  0  0  0  0
  1  2  1  0  0  0  0
  1 24  1  0  0  0  0
  1 25  1  0  0  0  0
  1 26  1  0  0  0  0
  2  3  1  0  0  0  0
  3  4  1  0  0  0  0
  3 22  2  0  0  0  0
  4  5  2  0  0  0  0
  4 27  1  0  0  0  0
  5  6  1  0  0  0  0
  5 20  1  0  0  0  0
  6  7  2  0  0  0  0
  6 28  1  0  0  0  0
  7  8  1  0  0  0  0
  7 29  1  0  0  0  0
  8  9  2  0  0  0  0
  8 10  1  0  0  0  0
 10 11  1  0  0  0  0
 10 30  1  0  0  0  0
 10 31  1  0  0  0  0
 11 12  1  0  0  0  0
 11 32  1  0  0  0  0
 11 33  1  0  0  0  0
 12 13  1  0  0  0  0
 12 34  1  0  0  0  0
 12 35  1  0  0  0  0
 13 14  1  0  0  0  0
 13 36  1  0  0  0  0
 13 37  1  0  0  0  0
 14 15  1  0  0  0  0
 14 19  2  0  0  0  0
 15 16  2  0  0  0  0
 15 38  1  0  0  0  0
 16 17  1  0  0  0  0
 16 39  1  0  0  0  0
 17 18  2  0  0  0  0
 17 40  1  0  0  0  0
 18 19  1  0  0  0  0
 18 41  1  0  0  0  0
 19 42  1  0  0  0  0
 20 21  2  0  0  0  0
 20 43  1  0  0  0  0
 21 22  1  0  0  0  0
 21 44  1  0  0  0  0
 22 23  1  0  0  0  0
 23 45  1  0  0  0  0
M  END
