REMARK  Name = 
REMARK  10 active torsions:
REMARK  status: ('A' for Active; 'I' for Inactive)
REMARK    1  A    between atoms: C_1  and  O_2
REMARK    2  A    between atoms: O_2  and  C_3
REMARK    3  A    between atoms: C_5  and  C_6
REMARK    4  A    between atoms: C_7  and  C_8
REMARK    5  A    between atoms: C_8  and  C_10
REMARK    6  A    between atoms: C_10  and  C_11
REMARK    7  A    between atoms: C_11  and  C_12
REMARK    8  A    between atoms: C_12  and  C_13
REMARK    9  A    between atoms: C_13  and  C_14
REMARK   10  A    between atoms: C_22  and  O_23
REMARK                            x       y       z     vdW  Elec       q    Type
REMARK                         _______ _______ _______ _____ _____    ______ ____
ROOT
ATOM      1  C   UNL     1       0.427  -5.251  -3.112  0.00  0.00    +0.000 C 
ATOM      2  C   UNL     1      -0.115  -4.696  -4.230  0.00  0.00    +0.000 C 
ENDROOT
BRANCH   1   5
ATOM      3  C   UNL     1       0.774  -2.231  -0.867  0.00  0.00    +0.000 A 
ATOM      4  C   UNL     1       0.474  -3.026  -1.948  0.00  0.00    +0.000 A 
ATOM      5  C   UNL     1       0.741  -4.380  -1.907  0.00  0.00    +0.000 A 
ATOM      6  C   UNL     1       1.289  -4.944  -0.780  0.00  0.00    +0.000 A 
ATOM      7  C   UNL     1       1.566  -4.163   0.321  0.00  0.00    +0.000 A 
ATOM      8  C   UNL     1       1.308  -2.788   0.313  0.00  0.00    +0.000 A 
BRANCH   3  10
ATOM      9  C   UNL     1       0.989  -0.070   0.070  0.00  0.00    +0.000 C 
ATOM     10  O   UNL     1       0.515  -0.908  -0.974  0.00  0.00    +0.000 OA
ENDBRANCH   3  10
BRANCH   8  11
ATOM     11  O   UNL     1       1.576  -1.983   1.451  0.00  0.00    +0.000 OA
ATOM     12  H   UNL     1       1.385  -1.002   1.426  0.00  0.00    +0.000 HD
ENDBRANCH   8  11
ENDBRANCH   1   5
BRANCH   2  13
ATOM     13  C   UNL     1      -0.429  -5.566  -5.436  0.00  0.00    +0.000 C 
ATOM     14  O   UNL     1      -0.935  -5.047  -6.479  0.00  0.00    +0.000 OA
BRANCH  13  15
ATOM     15  C   UNL     1      -0.136  -7.057  -5.393  0.00  0.00    +0.000 C 
BRANCH  15  16
ATOM     16  C   UNL     1       1.350  -7.276  -5.159  0.00  0.00    +0.000 C 
BRANCH  16  17
ATOM     17  C   UNL     1       1.753  -6.643  -3.837  0.00  0.00    +0.000 C 
BRANCH  17  18
ATOM     18  C   UNL     1       0.963  -7.282  -2.707  0.00  0.00    +0.000 C 
BRANCH  18  19
ATOM     19  C   UNL     1       1.255  -8.773  -2.665  0.00  0.00    +0.000 A 
ATOM     20  C   UNL     1       0.487  -9.662  -3.400  0.00  0.00    +0.000 A 
ATOM     21  C   UNL     1       0.697 -11.018  -3.058  0.00  0.00    +0.000 A 
ATOM     22  C   UNL     1       1.744 -11.470  -2.393  0.00  0.00    +0.000 A 
ATOM     23  C   UNL     1       2.502 -10.535  -1.744  0.00  0.00    +0.000 A 
ATOM     24  C   UNL     1       2.274  -9.192  -1.925  0.00  0.00    +0.000 A 
ENDBRANCH  18  19
ENDBRANCH  17  18
ENDBRANCH  16  17
ENDBRANCH  15  16
ENDBRANCH  13  15
ENDBRANCH   2  13
TORSDOF 9
