
 OpenBabel09262515163D

 35 37  0  0  0  0  0  0  0  0999 V2000
    1.0475    0.0171   -0.0863 C   0  0  0  0  0  0  0  0  0  0  0  0
    0.5742   -1.2615   -0.4830 O   0  0  0  0  0  0  0  0  0  0  0  0
    0.9172   -1.7811   -1.7592 C   0  0  0  0  0  0  0  0  0  0  0  0
   -0.1208   -2.2515   -2.5465 C   0  0  0  0  0  0  0  0  0  0  0  0
    0.3054   -2.9007   -3.7292 C   0  0  0  0  0  0  0  0  0  0  0  0
    1.5103   -2.7813   -4.2565 C   0  0  0  0  0  0  0  0  0  0  0  0
    1.8069   -3.2153   -5.6827 C   0  0  0  0  0  0  0  0  0  0  0  0
    3.1354   -3.0674   -6.2189 C   0  0  0  0  0  0  0  0  0  0  0  0
    4.1829   -2.5084   -5.4036 C   0  0  0  0  0  0  0  0  0  0  0  0
    5.3552   -2.3779   -5.8767 O   0  0  0  0  0  0  0  0  0  0  0  0
    3.8862   -2.0744   -3.9774 C   0  0  0  0  0  0  0  0  0  0  0  0
    4.4554   -0.9095   -3.4901 C   0  0  0  0  0  0  0  0  0  0  0  0
    4.4545   -0.8181   -2.0781 C   0  0  0  0  0  0  0  0  0  0  0  0
    3.6923   -1.5446   -1.2811 C   0  0  0  0  0  0  0  0  0  0  0  0
    3.1032   -2.6448   -1.8396 C   0  0  0  0  0  0  0  0  0  0  0  0
    3.1709   -2.8721   -3.1930 C   0  0  0  0  0  0  0  0  0  0  0  0
    0.8284   -3.7375   -6.4443 O   0  0  0  0  0  0  0  0  0  0  0  0
    2.4766   -2.2463   -3.4505 C   0  0  0  0  0  0  0  0  0  0  0  0
    2.1584   -1.7108   -2.2259 C   0  0  0  0  0  0  0  0  0  0  0  0
    3.1660   -1.0764   -1.4522 O   0  0  0  0  0  0  0  0  0  0  0  0
    2.8443   -0.5207   -0.1856 C   0  0  0  0  0  0  0  0  0  0  0  0
    0.6908    0.2400    0.8976 H   0  0  0  0  0  0  0  0  0  0  0  0
    0.6908    0.7578   -0.7713 H   0  0  0  0  0  0  0  0  0  0  0  0
    2.1175    0.0171   -0.0863 H   0  0  0  0  0  0  0  0  0  0  0  0
   -1.1515   -2.1346   -2.2840 H   0  0  0  0  0  0  0  0  0  0  0  0
   -0.3973   -3.5324   -4.2313 H   0  0  0  0  0  0  0  0  0  0  0  0
    3.3443   -3.3729   -7.2228 H   0  0  0  0  0  0  0  0  0  0  0  0
    4.8592   -0.1478   -4.1239 H   0  0  0  0  0  0  0  0  0  0  0  0
    5.1174   -0.1112   -1.6246 H   0  0  0  0  0  0  0  0  0  0  0  0
    3.5438   -1.2862   -0.2534 H   0  0  0  0  0  0  0  0  0  0  0  0
    2.5819   -3.3387   -1.2138 H   0  0  0  0  0  0  0  0  0  0  0  0
    3.4951   -2.2447   -3.7782 H   0  0  0  0  0  0  0  0  0  0  0  0
    2.0973    0.2356   -0.3073 H   0  0  0  0  0  0  0  0  0  0  0  0
    2.4711   -1.2905    0.4571 H   0  0  0  0  0  0  0  0  0  0  0  0
    3.7220   -0.0887    0.2477 H   0  0  0  0  0  0  0  0  0  0  0  0
  1  2  1  0  0  0  0
  1 22  1  0  0  0  0
  1 23  1  0  0  0  0
  1 24  1  0  0  0  0
  2  3  1  0  0  0  0
  3  4  1  0  0  0  0
  3 19  2  0  0  0  0
  4  5  2  0  0  0  0
  4 25  1  0  0  0  0
  5  6  1  0  0  0  0
  5 26  1  0  0  0  0
  6  7  1  0  0  0  0
  6 18  2  0  0  0  0
  7  8  2  0  0  0  0
  7 17  1  0  0  0  0
  8  9  1  0  0  0  0
  8 27  1  0  0  0  0
  9 10  2  0  0  0  0
  9 11  1  0  0  0  0
 11 12  1  0  0  0  0
 11 16  2  0  0  0  0
 12 13  2  0  0  0  0
 12 28  1  0  0  0  0
 13 14  1  0  0  0  0
 13 29  1  0  0  0  0
 14 15  2  0  0  0  0
 14 30  1  0  0  0  0
 15 16  1  0  0  0  0
 15 31  1  0  0  0  0
 16 17  1  0  0  0  0
 18 19  1  0  0  0  0
 18 32  1  0  0  0  0
 19 20  1  0  0  0  0
 20 21  1  0  0  0  0
 21 33  1  0  0  0  0
 21 34  1  0  0  0  0
 21 35  1  0  0  0  0
M  END
