REMARK  Name = 
REMARK  5 active torsions:
REMARK  status: ('A' for Active; 'I' for Inactive)
REMARK    1  A    between atoms: C_1  and  O_2
REMARK    2  A    between atoms: O_2  and  C_3
REMARK    3  A    between atoms: C_6  and  C_7
REMARK    4  A    between atoms: C_19  and  O_20
REMARK    5  A    between atoms: O_20  and  C_21
REMARK                            x       y       z     vdW  Elec       q    Type
REMARK                         _______ _______ _______ _____ _____    ______ ____
ROOT
ATOM      1  C   UNL     1       1.807  -3.215  -5.683  0.00  0.00    +0.000 A 
ATOM      2  C   UNL     1       3.135  -3.067  -6.219  0.00  0.00    +0.000 A 
ATOM      3  C   UNL     1       4.183  -2.508  -5.404  0.00  0.00    +0.000 A 
ATOM      4  O   UNL     1       5.355  -2.378  -5.877  0.00  0.00    +0.000 OA
ATOM      5  C   UNL     1       3.886  -2.074  -3.977  0.00  0.00    +0.000 A 
ATOM      6  C   UNL     1       4.455  -0.909  -3.490  0.00  0.00    +0.000 A 
ATOM      7  C   UNL     1       4.455  -0.818  -2.078  0.00  0.00    +0.000 A 
ATOM      8  C   UNL     1       3.692  -1.545  -1.281  0.00  0.00    +0.000 A 
ATOM      9  C   UNL     1       3.103  -2.645  -1.840  0.00  0.00    +0.000 A 
ATOM     10  C   UNL     1       3.171  -2.872  -3.193  0.00  0.00    +0.000 A 
ATOM     11  O   UNL     1       0.828  -3.737  -6.444  0.00  0.00    +0.000 OA
ENDROOT
BRANCH   1  15
ATOM     12  C   UNL     1       0.917  -1.781  -1.759  0.00  0.00    +0.000 A 
ATOM     13  C   UNL     1      -0.121  -2.252  -2.546  0.00  0.00    +0.000 A 
ATOM     14  C   UNL     1       0.305  -2.901  -3.729  0.00  0.00    +0.000 A 
ATOM     15  C   UNL     1       1.510  -2.781  -4.256  0.00  0.00    +0.000 A 
ATOM     16  C   UNL     1       2.477  -2.246  -3.450  0.00  0.00    +0.000 A 
ATOM     17  C   UNL     1       2.158  -1.711  -2.226  0.00  0.00    +0.000 A 
BRANCH  12  19
ATOM     18  C   UNL     1       1.048   0.017  -0.086  0.00  0.00    +0.000 C 
ATOM     19  O   UNL     1       0.574  -1.262  -0.483  0.00  0.00    +0.000 OA
ENDBRANCH  12  19
BRANCH  17  20
ATOM     20  O   UNL     1       3.166  -1.076  -1.452  0.00  0.00    +0.000 OA
ATOM     21  C   UNL     1       2.844  -0.521  -0.186  0.00  0.00    +0.000 C 
ENDBRANCH  17  20
ENDBRANCH   1  15
TORSDOF 3
