
 OpenBabel09262515163D

 35 37  0  0  0  0  0  0  0  0999 V2000
    1.0027    0.0230    0.0973 C   0  0  0  0  0  0  0  0  0  0  0  0
    0.5293    0.8313    1.1645 O   0  0  0  0  0  0  0  0  0  0  0  0
    0.8724    0.5101    2.5045 C   0  0  0  0  0  0  0  0  0  0  0  0
   -0.0916    0.6206    3.4930 C   0  0  0  0  0  0  0  0  0  0  0  0
    0.4348    0.6526    4.8060 C   0  0  0  0  0  0  0  0  0  0  0  0
   -0.4041    1.1413    5.8423 O   0  0  0  0  0  0  0  0  0  0  0  0
    0.0751    1.1947    7.1780 C   0  0  0  0  0  0  0  0  0  0  0  0
    1.6519    0.2596    5.1348 C   0  0  0  0  0  0  0  0  0  0  0  0
    2.5389    0.1029    4.1062 C   0  0  0  0  0  0  0  0  0  0  0  0
    4.0026   -0.1679    4.4139 C   0  0  0  0  0  0  0  0  0  0  0  0
    4.9458   -0.3346    3.3384 C   0  0  0  0  0  0  0  0  0  0  0  0
    4.5021   -0.2448    1.9712 C   0  0  0  0  0  0  0  0  0  0  0  0
    5.3343   -0.3919    1.0220 O   0  0  0  0  0  0  0  0  0  0  0  0
    3.0384    0.0260    1.6634 C   0  0  0  0  0  0  0  0  0  0  0  0
    2.4017   -0.7207    0.6858 C   0  0  0  0  0  0  0  0  0  0  0  0
    1.1503   -0.1947    0.2868 C   0  0  0  0  0  0  0  0  0  0  0  0
    0.4526    0.6863    0.9804 C   0  0  0  0  0  0  0  0  0  0  0  0
    1.1204    1.3418    1.9774 C   0  0  0  0  0  0  0  0  0  0  0  0
    2.3938    0.9717    2.3368 C   0  0  0  0  0  0  0  0  0  0  0  0
    4.4171   -0.2518    5.6912 O   0  0  0  0  0  0  0  0  0  0  0  0
    2.1263    0.1867    2.7983 C   0  0  0  0  0  0  0  0  0  0  0  0
    0.6460    0.4150   -0.8323 H   0  0  0  0  0  0  0  0  0  0  0  0
    0.6460   -0.9780    0.2226 H   0  0  0  0  0  0  0  0  0  0  0  0
    2.0727    0.0230    0.0973 H   0  0  0  0  0  0  0  0  0  0  0  0
   -1.1392    0.6766    3.2828 H   0  0  0  0  0  0  0  0  0  0  0  0
    0.3389    0.2096    7.5019 H   0  0  0  0  0  0  0  0  0  0  0  0
    0.9367    1.8276    7.2228 H   0  0  0  0  0  0  0  0  0  0  0  0
   -0.6893    1.5871    7.8157 H   0  0  0  0  0  0  0  0  0  0  0  0
    1.9290    0.0738    6.1515 H   0  0  0  0  0  0  0  0  0  0  0  0
    5.9761   -0.5253    3.5550 H   0  0  0  0  0  0  0  0  0  0  0  0
    2.8184   -1.6142    0.2701 H   0  0  0  0  0  0  0  0  0  0  0  0
    0.7407   -0.5343   -0.6415 H   0  0  0  0  0  0  0  0  0  0  0  0
   -0.5797    0.8769    0.7734 H   0  0  0  0  0  0  0  0  0  0  0  0
    0.6444    2.1547    2.4849 H   0  0  0  0  0  0  0  0  0  0  0  0
    2.8217   -0.0105    2.0093 H   0  0  0  0  0  0  0  0  0  0  0  0
  1  2  1  0  0  0  0
  1 22  1  0  0  0  0
  1 23  1  0  0  0  0
  1 24  1  0  0  0  0
  2  3  1  0  0  0  0
  3  4  1  0  0  0  0
  3 21  2  0  0  0  0
  4  5  2  0  0  0  0
  4 25  1  0  0  0  0
  5  6  1  0  0  0  0
  5  8  1  0  0  0  0
  6  7  1  0  0  0  0
  7 26  1  0  0  0  0
  7 27  1  0  0  0  0
  7 28  1  0  0  0  0
  8  9  2  0  0  0  0
  8 29  1  0  0  0  0
  9 10  1  0  0  0  0
  9 21  1  0  0  0  0
 10 11  2  0  0  0  0
 10 20  1  0  0  0  0
 11 12  1  0  0  0  0
 11 30  1  0  0  0  0
 12 13  2  0  0  0  0
 12 14  1  0  0  0  0
 14 15  1  0  0  0  0
 14 19  2  0  0  0  0
 15 16  2  0  0  0  0
 15 31  1  0  0  0  0
 16 17  1  0  0  0  0
 16 32  1  0  0  0  0
 17 18  2  0  0  0  0
 17 33  1  0  0  0  0
 18 19  1  0  0  0  0
 18 34  1  0  0  0  0
 19 20  1  0  0  0  0
 21 35  1  0  0  0  0
M  END
