REMARK  Name = 
REMARK  5 active torsions:
REMARK  status: ('A' for Active; 'I' for Inactive)
REMARK    1  A    between atoms: C_1  and  O_2
REMARK    2  A    between atoms: O_2  and  C_3
REMARK    3  A    between atoms: C_5  and  O_6
REMARK    4  A    between atoms: O_6  and  C_7
REMARK    5  A    between atoms: C_9  and  C_10
REMARK                            x       y       z     vdW  Elec       q    Type
REMARK                         _______ _______ _______ _____ _____    ______ ____
ROOT
ATOM      1  C   UNL     1       4.003  -0.168   4.414  0.00  0.00    +0.000 A 
ATOM      2  C   UNL     1       4.946  -0.335   3.338  0.00  0.00    +0.000 A 
ATOM      3  C   UNL     1       4.502  -0.245   1.971  0.00  0.00    +0.000 A 
ATOM      4  O   UNL     1       5.334  -0.392   1.022  0.00  0.00    +0.000 OA
ATOM      5  C   UNL     1       3.038   0.026   1.663  0.00  0.00    +0.000 A 
ATOM      6  C   UNL     1       2.402  -0.721   0.686  0.00  0.00    +0.000 A 
ATOM      7  C   UNL     1       1.150  -0.195   0.287  0.00  0.00    +0.000 A 
ATOM      8  C   UNL     1       0.453   0.686   0.980  0.00  0.00    +0.000 A 
ATOM      9  C   UNL     1       1.120   1.342   1.977  0.00  0.00    +0.000 A 
ATOM     10  C   UNL     1       2.394   0.972   2.337  0.00  0.00    +0.000 A 
ATOM     11  O   UNL     1       4.417  -0.252   5.691  0.00  0.00    +0.000 OA
ENDROOT
BRANCH   1  16
ATOM     12  C   UNL     1       0.872   0.510   2.505  0.00  0.00    +0.000 A 
ATOM     13  C   UNL     1      -0.092   0.621   3.493  0.00  0.00    +0.000 A 
ATOM     14  C   UNL     1       0.435   0.653   4.806  0.00  0.00    +0.000 A 
ATOM     15  C   UNL     1       1.652   0.260   5.135  0.00  0.00    +0.000 A 
ATOM     16  C   UNL     1       2.539   0.103   4.106  0.00  0.00    +0.000 A 
ATOM     17  C   UNL     1       2.126   0.187   2.798  0.00  0.00    +0.000 A 
BRANCH  12  19
ATOM     18  C   UNL     1       1.003   0.023   0.097  0.00  0.00    +0.000 C 
ATOM     19  O   UNL     1       0.529   0.831   1.165  0.00  0.00    +0.000 OA
ENDBRANCH  12  19
BRANCH  14  20
ATOM     20  O   UNL     1      -0.404   1.141   5.842  0.00  0.00    +0.000 OA
ATOM     21  C   UNL     1       0.075   1.195   7.178  0.00  0.00    +0.000 C 
ENDBRANCH  14  20
ENDBRANCH   1  16
TORSDOF 3
