
 OpenBabel09262515163D

 31 33  0  0  0  0  0  0  0  0999 V2000
    0.9372   -0.0099    0.0772 C   0  0  0  0  0  0  0  0  0  0  0  0
    0.4639   -1.3473    0.0153 O   0  0  0  0  0  0  0  0  0  0  0  0
    0.8069   -2.1715   -1.0890 C   0  0  0  0  0  0  0  0  0  0  0  0
   -0.2587   -2.7903   -1.7214 C   0  0  0  0  0  0  0  0  0  0  0  0
    0.1262   -3.7122   -2.7234 C   0  0  0  0  0  0  0  0  0  0  0  0
    1.3199   -3.7508   -3.2870 C   0  0  0  0  0  0  0  0  0  0  0  0
    1.5733   -4.5184   -4.5742 C   0  0  0  0  0  0  0  0  0  0  0  0
    2.8909   -4.5344   -5.1555 C   0  0  0  0  0  0  0  0  0  0  0  0
    3.9683   -3.8231   -4.5172 C   0  0  0  0  0  0  0  0  0  0  0  0
    5.1310   -3.8373   -5.0302 O   0  0  0  0  0  0  0  0  0  0  0  0
    3.7148   -3.0555   -3.2300 C   0  0  0  0  0  0  0  0  0  0  0  0
    4.3327   -1.8347   -3.0147 C   0  0  0  0  0  0  0  0  0  0  0  0
    4.3788   -1.4475   -1.6546 C   0  0  0  0  0  0  0  0  0  0  0  0
    3.6213   -1.9623   -0.7032 C   0  0  0  0  0  0  0  0  0  0  0  0
    2.9831   -3.1342   -1.0014 C   0  0  0  0  0  0  0  0  0  0  0  0
    3.0016   -3.6441   -2.2771 C   0  0  0  0  0  0  0  0  0  0  0  0
    0.5668   -5.1829   -5.1705 O   0  0  0  0  0  0  0  0  0  0  0  0
    2.3154   -3.0631   -2.6504 C   0  0  0  0  0  0  0  0  0  0  0  0
    2.0375   -2.2442   -1.5827 C   0  0  0  0  0  0  0  0  0  0  0  0
    0.5805    0.4536    0.9732 H   0  0  0  0  0  0  0  0  0  0  0  0
    0.5806    0.5343   -0.7722 H   0  0  0  0  0  0  0  0  0  0  0  0
    2.0072   -0.0099    0.0772 H   0  0  0  0  0  0  0  0  0  0  0  0
   -1.2803   -2.5895   -1.4746 H   0  0  0  0  0  0  0  0  0  0  0  0
   -0.6004   -4.4280   -3.0469 H   0  0  0  0  0  0  0  0  0  0  0  0
    3.0693   -5.0748   -6.0617 H   0  0  0  0  0  0  0  0  0  0  0  0
    4.7383   -1.2385   -3.8052 H   0  0  0  0  0  0  0  0  0  0  0  0
    5.0760   -0.6845   -1.3776 H   0  0  0  0  0  0  0  0  0  0  0  0
    3.5127   -1.4879    0.2497 H   0  0  0  0  0  0  0  0  0  0  0  0
    2.4618   -3.6617   -0.2301 H   0  0  0  0  0  0  0  0  0  0  0  0
    3.3256   -3.1640   -2.9885 H   0  0  0  0  0  0  0  0  0  0  0  0
    2.8197   -1.6598   -1.1450 H   0  0  0  0  0  0  0  0  0  0  0  0
  1  2  1  0  0  0  0
  1 20  1  0  0  0  0
  1 21  1  0  0  0  0
  1 22  1  0  0  0  0
  2  3  1  0  0  0  0
  3  4  1  0  0  0  0
  3 19  2  0  0  0  0
  4  5  2  0  0  0  0
  4 23  1  0  0  0  0
  5  6  1  0  0  0  0
  5 24  1  0  0  0  0
  6  7  1  0  0  0  0
  6 18  2  0  0  0  0
  7  8  2  0  0  0  0
  7 17  1  0  0  0  0
  8  9  1  0  0  0  0
  8 25  1  0  0  0  0
  9 10  2  0  0  0  0
  9 11  1  0  0  0  0
 11 12  1  0  0  0  0
 11 16  2  0  0  0  0
 12 13  2  0  0  0  0
 12 26  1  0  0  0  0
 13 14  1  0  0  0  0
 13 27  1  0  0  0  0
 14 15  2  0  0  0  0
 14 28  1  0  0  0  0
 15 16  1  0  0  0  0
 15 29  1  0  0  0  0
 16 17  1  0  0  0  0
 18 19  1  0  0  0  0
 18 30  1  0  0  0  0
 19 31  1  0  0  0  0
M  END
