REMARK  Name = 
REMARK  3 active torsions:
REMARK  status: ('A' for Active; 'I' for Inactive)
REMARK    1  A    between atoms: C_1  and  O_2
REMARK    2  A    between atoms: O_2  and  C_3
REMARK    3  A    between atoms: C_6  and  C_7
REMARK                            x       y       z     vdW  Elec       q    Type
REMARK                         _______ _______ _______ _____ _____    ______ ____
ROOT
ATOM      1  C   UNL     1       1.573  -4.518  -4.574  0.00  0.00    +0.000 A 
ATOM      2  C   UNL     1       2.891  -4.534  -5.155  0.00  0.00    +0.000 A 
ATOM      3  C   UNL     1       3.968  -3.823  -4.517  0.00  0.00    +0.000 A 
ATOM      4  O   UNL     1       5.131  -3.837  -5.030  0.00  0.00    +0.000 OA
ATOM      5  C   UNL     1       3.715  -3.055  -3.230  0.00  0.00    +0.000 A 
ATOM      6  C   UNL     1       4.333  -1.835  -3.015  0.00  0.00    +0.000 A 
ATOM      7  C   UNL     1       4.379  -1.448  -1.655  0.00  0.00    +0.000 A 
ATOM      8  C   UNL     1       3.621  -1.962  -0.703  0.00  0.00    +0.000 A 
ATOM      9  C   UNL     1       2.983  -3.134  -1.001  0.00  0.00    +0.000 A 
ATOM     10  C   UNL     1       3.002  -3.644  -2.277  0.00  0.00    +0.000 A 
ATOM     11  O   UNL     1       0.567  -5.183  -5.170  0.00  0.00    +0.000 OA
ENDROOT
BRANCH   1  15
ATOM     12  C   UNL     1       0.807  -2.171  -1.089  0.00  0.00    +0.000 A 
ATOM     13  C   UNL     1      -0.259  -2.790  -1.721  0.00  0.00    +0.000 A 
ATOM     14  C   UNL     1       0.126  -3.712  -2.723  0.00  0.00    +0.000 A 
ATOM     15  C   UNL     1       1.320  -3.751  -3.287  0.00  0.00    +0.000 A 
ATOM     16  C   UNL     1       2.315  -3.063  -2.650  0.00  0.00    +0.000 A 
ATOM     17  C   UNL     1       2.038  -2.244  -1.583  0.00  0.00    +0.000 A 
BRANCH  12  19
ATOM     18  C   UNL     1       0.937  -0.010   0.077  0.00  0.00    +0.000 C 
ATOM     19  O   UNL     1       0.464  -1.347   0.015  0.00  0.00    +0.000 OA
ENDBRANCH  12  19
ENDBRANCH   1  15
TORSDOF 2
