
 OpenBabel09262515163D

 31 33  0  0  0  0  0  0  0  0999 V2000
    0.9493   -0.0706   -0.0495 C   0  0  0  0  0  0  0  0  0  0  0  0
    0.4760   -1.3325   -0.4966 O   0  0  0  0  0  0  0  0  0  0  0  0
    0.8190   -1.8010   -1.7924 C   0  0  0  0  0  0  0  0  0  0  0  0
   -0.1045   -2.4743   -2.5634 C   0  0  0  0  0  0  0  0  0  0  0  0
    0.2789   -3.0344   -3.7740 C   0  0  0  0  0  0  0  0  0  0  0  0
    1.5808   -2.9323   -4.2251 C   0  0  0  0  0  0  0  0  0  0  0  0
    2.4908   -2.2559   -3.4277 C   0  0  0  0  0  0  0  0  0  0  0  0
    2.1459   -1.6786   -2.2226 C   0  0  0  0  0  0  0  0  0  0  0  0
    3.1566   -0.9601   -1.4062 C   0  0  0  0  0  0  0  0  0  0  0  0
    2.8103   -0.4588   -0.3344 O   0  0  0  0  0  0  0  0  0  0  0  0
    4.5004   -0.9380   -1.9481 C   0  0  0  0  0  0  0  0  0  0  0  0
    4.7519   -1.6046   -3.1677 C   0  0  0  0  0  0  0  0  0  0  0  0
    3.7886   -2.1978   -3.9031 O   0  0  0  0  0  0  0  0  0  0  0  0
    6.1826   -1.6564   -3.6785 C   0  0  0  0  0  0  0  0  0  0  0  0
    6.4853   -1.0980   -4.9094 C   0  0  0  0  0  0  0  0  0  0  0  0
    7.7606   -1.4590   -5.4046 C   0  0  0  0  0  0  0  0  0  0  0  0
    8.7351   -1.9617   -4.6686 C   0  0  0  0  0  0  0  0  0  0  0  0
    8.3833   -2.4350   -3.4350 C   0  0  0  0  0  0  0  0  0  0  0  0
    7.1187   -2.2360   -2.9361 C   0  0  0  0  0  0  0  0  0  0  0  0
    0.5927    0.1130    0.9425 H   0  0  0  0  0  0  0  0  0  0  0  0
    0.5927    0.6966   -0.7045 H   0  0  0  0  0  0  0  0  0  0  0  0
    2.0193   -0.0706   -0.0495 H   0  0  0  0  0  0  0  0  0  0  0  0
   -1.1166   -2.5651   -2.2285 H   0  0  0  0  0  0  0  0  0  0  0  0
   -0.4450   -3.5532   -4.3671 H   0  0  0  0  0  0  0  0  0  0  0  0
    1.8770   -3.3613   -5.1595 H   0  0  0  0  0  0  0  0  0  0  0  0
    5.2871   -0.4264   -1.4341 H   0  0  0  0  0  0  0  0  0  0  0  0
    5.8154   -0.4523   -5.4378 H   0  0  0  0  0  0  0  0  0  0  0  0
    7.9486   -1.3146   -6.4481 H   0  0  0  0  0  0  0  0  0  0  0  0
    9.7455   -1.9968   -5.0189 H   0  0  0  0  0  0  0  0  0  0  0  0
    9.1033   -2.9679   -2.8498 H   0  0  0  0  0  0  0  0  0  0  0  0
    6.8860   -2.5509   -1.9403 H   0  0  0  0  0  0  0  0  0  0  0  0
  1  2  1  0  0  0  0
  1 20  1  0  0  0  0
  1 21  1  0  0  0  0
  1 22  1  0  0  0  0
  2  3  1  0  0  0  0
  3  4  2  0  0  0  0
  3  8  1  0  0  0  0
  4  5  1  0  0  0  0
  4 23  1  0  0  0  0
  5  6  2  0  0  0  0
  5 24  1  0  0  0  0
  6  7  1  0  0  0  0
  6 25  1  0  0  0  0
  7  8  2  0  0  0  0
  7 13  1  0  0  0  0
  8  9  1  0  0  0  0
  9 10  2  0  0  0  0
  9 11  1  0  0  0  0
 11 12  2  0  0  0  0
 11 26  1  0  0  0  0
 12 13  1  0  0  0  0
 12 14  1  0  0  0  0
 14 15  2  0  0  0  0
 14 19  1  0  0  0  0
 15 16  1  0  0  0  0
 15 27  1  0  0  0  0
 16 17  2  0  0  0  0
 16 28  1  0  0  0  0
 17 18  1  0  0  0  0
 17 29  1  0  0  0  0
 18 19  2  0  0  0  0
 18 30  1  0  0  0  0
 19 31  1  0  0  0  0
M  END
