REMARK  Name = 
REMARK  3 active torsions:
REMARK  status: ('A' for Active; 'I' for Inactive)
REMARK    1  A    between atoms: C_1  and  O_2
REMARK    2  A    between atoms: O_2  and  C_3
REMARK    3  A    between atoms: C_12  and  C_14
REMARK                            x       y       z     vdW  Elec       q    Type
REMARK                         _______ _______ _______ _____ _____    ______ ____
ROOT
ATOM      1  C   UNL     1       0.819  -1.801  -1.792  0.00  0.00    +0.000 A 
ATOM      2  C   UNL     1      -0.104  -2.474  -2.563  0.00  0.00    +0.000 A 
ATOM      3  C   UNL     1       0.279  -3.034  -3.774  0.00  0.00    +0.000 A 
ATOM      4  C   UNL     1       1.581  -2.932  -4.225  0.00  0.00    +0.000 A 
ATOM      5  C   UNL     1       2.491  -2.256  -3.428  0.00  0.00    +0.000 A 
ATOM      6  C   UNL     1       2.146  -1.679  -2.223  0.00  0.00    +0.000 A 
ATOM      7  C   UNL     1       3.157  -0.960  -1.406  0.00  0.00    +0.000 A 
ATOM      8  O   UNL     1       2.810  -0.459  -0.334  0.00  0.00    +0.000 OA
ATOM      9  C   UNL     1       4.500  -0.938  -1.948  0.00  0.00    +0.000 A 
ATOM     10  C   UNL     1       4.752  -1.605  -3.168  0.00  0.00    +0.000 A 
ATOM     11  O   UNL     1       3.789  -2.198  -3.903  0.00  0.00    +0.000 OA
ENDROOT
BRANCH  10  12
ATOM     12  C   UNL     1       6.183  -1.656  -3.679  0.00  0.00    +0.000 A 
ATOM     13  C   UNL     1       6.485  -1.098  -4.909  0.00  0.00    +0.000 A 
ATOM     14  C   UNL     1       7.761  -1.459  -5.405  0.00  0.00    +0.000 A 
ATOM     15  C   UNL     1       8.735  -1.962  -4.669  0.00  0.00    +0.000 A 
ATOM     16  C   UNL     1       8.383  -2.435  -3.435  0.00  0.00    +0.000 A 
ATOM     17  C   UNL     1       7.119  -2.236  -2.936  0.00  0.00    +0.000 A 
ENDBRANCH  10  12
BRANCH   1  19
ATOM     18  C   UNL     1       0.949  -0.071  -0.050  0.00  0.00    +0.000 C 
ATOM     19  O   UNL     1       0.476  -1.333  -0.497  0.00  0.00    +0.000 OA
ENDBRANCH   1  19
TORSDOF 2
