
 OpenBabel09262515163D

 35 37  0  0  0  0  0  0  0  0999 V2000
    0.9484    0.0248   -0.0820 C   0  0  0  0  0  0  0  0  0  0  0  0
    0.4750   -1.3137   -0.1068 O   0  0  0  0  0  0  0  0  0  0  0  0
    0.8181   -2.1682   -1.1879 C   0  0  0  0  0  0  0  0  0  0  0  0
   -0.2495   -2.8030   -1.8008 C   0  0  0  0  0  0  0  0  0  0  0  0
    0.1323   -3.7534   -2.7771 C   0  0  0  0  0  0  0  0  0  0  0  0
    1.3250   -3.8095   -3.3414 C   0  0  0  0  0  0  0  0  0  0  0  0
    1.5587   -4.5606   -4.5236 O   0  0  0  0  0  0  0  0  0  0  0  0
    2.8568   -4.5944   -5.0983 C   0  0  0  0  0  0  0  0  0  0  0  0
    2.3226   -3.1056   -2.7261 C   0  0  0  0  0  0  0  0  0  0  0  0
    3.7566   -3.2646   -3.2046 C   0  0  0  0  0  0  0  0  0  0  0  0
    4.8154   -2.5280   -2.5639 C   0  0  0  0  0  0  0  0  0  0  0  0
    4.5156   -1.6409   -1.4697 C   0  0  0  0  0  0  0  0  0  0  0  0
    5.4500   -0.9909   -0.9043 O   0  0  0  0  0  0  0  0  0  0  0  0
    3.0817   -1.4819   -0.9912 C   0  0  0  0  0  0  0  0  0  0  0  0
    2.5887   -0.2134   -0.7331 C   0  0  0  0  0  0  0  0  0  0  0  0
    1.3650   -0.2075   -0.0229 C   0  0  0  0  0  0  0  0  0  0  0  0
    0.5572   -1.2466    0.0861 C   0  0  0  0  0  0  0  0  0  0  0  0
    1.0831   -2.4634   -0.2488 C   0  0  0  0  0  0  0  0  0  0  0  0
    2.3260   -2.5612   -0.8265 C   0  0  0  0  0  0  0  0  0  0  0  0
    4.0366   -4.0934   -4.2268 O   0  0  0  0  0  0  0  0  0  0  0  0
    2.0477   -2.2565   -1.6814 C   0  0  0  0  0  0  0  0  0  0  0  0
    0.5917    0.5129    0.8009 H   0  0  0  0  0  0  0  0  0  0  0  0
    0.5917    0.5454   -0.9461 H   0  0  0  0  0  0  0  0  0  0  0  0
    2.0184    0.0248   -0.0820 H   0  0  0  0  0  0  0  0  0  0  0  0
   -1.2704   -2.5938   -1.5581 H   0  0  0  0  0  0  0  0  0  0  0  0
   -0.5959   -4.4768   -3.0791 H   0  0  0  0  0  0  0  0  0  0  0  0
    3.1572   -3.6012   -5.3594 H   0  0  0  0  0  0  0  0  0  0  0  0
    3.5491   -5.0024   -4.3918 H   0  0  0  0  0  0  0  0  0  0  0  0
    2.8421   -5.2052   -5.9768 H   0  0  0  0  0  0  0  0  0  0  0  0
    5.8248   -2.6400   -2.9008 H   0  0  0  0  0  0  0  0  0  0  0  0
    3.0880    0.6808   -1.0428 H   0  0  0  0  0  0  0  0  0  0  0  0
    1.0737    0.7022    0.4593 H   0  0  0  0  0  0  0  0  0  0  0  0
   -0.4544   -1.1418    0.4187 H   0  0  0  0  0  0  0  0  0  0  0  0
    0.5188   -3.3523   -0.0583 H   0  0  0  0  0  0  0  0  0  0  0  0
    2.8314   -1.6612   -1.2617 H   0  0  0  0  0  0  0  0  0  0  0  0
  1  2  1  0  0  0  0
  1 22  1  0  0  0  0
  1 23  1  0  0  0  0
  1 24  1  0  0  0  0
  2  3  1  0  0  0  0
  3  4  1  0  0  0  0
  3 21  2  0  0  0  0
  4  5  2  0  0  0  0
  4 25  1  0  0  0  0
  5  6  1  0  0  0  0
  5 26  1  0  0  0  0
  6  7  1  0  0  0  0
  6  9  2  0  0  0  0
  7  8  1  0  0  0  0
  8 27  1  0  0  0  0
  8 28  1  0  0  0  0
  8 29  1  0  0  0  0
  9 10  1  0  0  0  0
  9 21  1  0  0  0  0
 10 11  2  0  0  0  0
 10 20  1  0  0  0  0
 11 12  1  0  0  0  0
 11 30  1  0  0  0  0
 12 13  2  0  0  0  0
 12 14  1  0  0  0  0
 14 15  1  0  0  0  0
 14 19  2  0  0  0  0
 15 16  2  0  0  0  0
 15 31  1  0  0  0  0
 16 17  1  0  0  0  0
 16 32  1  0  0  0  0
 17 18  2  0  0  0  0
 17 33  1  0  0  0  0
 18 19  1  0  0  0  0
 18 34  1  0  0  0  0
 19 20  1  0  0  0  0
 21 35  1  0  0  0  0
M  END
