REMARK  Name = 
REMARK  5 active torsions:
REMARK  status: ('A' for Active; 'I' for Inactive)
REMARK    1  A    between atoms: C_1  and  O_2
REMARK    2  A    between atoms: O_2  and  C_3
REMARK    3  A    between atoms: C_6  and  O_7
REMARK    4  A    between atoms: O_7  and  C_8
REMARK    5  A    between atoms: C_9  and  C_10
REMARK                            x       y       z     vdW  Elec       q    Type
REMARK                         _______ _______ _______ _____ _____    ______ ____
ROOT
ATOM      1  C   UNL     1       3.757  -3.265  -3.205  0.00  0.00    +0.000 A 
ATOM      2  C   UNL     1       4.815  -2.528  -2.564  0.00  0.00    +0.000 A 
ATOM      3  C   UNL     1       4.516  -1.641  -1.470  0.00  0.00    +0.000 A 
ATOM      4  O   UNL     1       5.450  -0.991  -0.904  0.00  0.00    +0.000 OA
ATOM      5  C   UNL     1       3.082  -1.482  -0.991  0.00  0.00    +0.000 A 
ATOM      6  C   UNL     1       2.589  -0.213  -0.733  0.00  0.00    +0.000 A 
ATOM      7  C   UNL     1       1.365  -0.207  -0.023  0.00  0.00    +0.000 A 
ATOM      8  C   UNL     1       0.557  -1.247   0.086  0.00  0.00    +0.000 A 
ATOM      9  C   UNL     1       1.083  -2.463  -0.249  0.00  0.00    +0.000 A 
ATOM     10  C   UNL     1       2.326  -2.561  -0.827  0.00  0.00    +0.000 A 
ATOM     11  O   UNL     1       4.037  -4.093  -4.227  0.00  0.00    +0.000 OA
ENDROOT
BRANCH   1  16
ATOM     12  C   UNL     1       0.818  -2.168  -1.188  0.00  0.00    +0.000 A 
ATOM     13  C   UNL     1      -0.249  -2.803  -1.801  0.00  0.00    +0.000 A 
ATOM     14  C   UNL     1       0.132  -3.753  -2.777  0.00  0.00    +0.000 A 
ATOM     15  C   UNL     1       1.325  -3.809  -3.341  0.00  0.00    +0.000 A 
ATOM     16  C   UNL     1       2.323  -3.106  -2.726  0.00  0.00    +0.000 A 
ATOM     17  C   UNL     1       2.048  -2.256  -1.681  0.00  0.00    +0.000 A 
BRANCH  12  19
ATOM     18  C   UNL     1       0.948   0.025  -0.082  0.00  0.00    +0.000 C 
ATOM     19  O   UNL     1       0.475  -1.314  -0.107  0.00  0.00    +0.000 OA
ENDBRANCH  12  19
BRANCH  15  20
ATOM     20  O   UNL     1       1.559  -4.561  -4.524  0.00  0.00    +0.000 OA
ATOM     21  C   UNL     1       2.857  -4.594  -5.098  0.00  0.00    +0.000 C 
ENDBRANCH  15  20
ENDBRANCH   1  16
TORSDOF 3
