REMARK  Name = 
REMARK  6 active torsions:
REMARK  status: ('A' for Active; 'I' for Inactive)
REMARK    1  A    between atoms: C_1  and  O_2
REMARK    2  A    between atoms: O_2  and  C_3
REMARK    3  A    between atoms: C_6  and  C_7
REMARK    4  A    between atoms: C_8  and  C_9
REMARK    5  A    between atoms: C_11  and  O_12
REMARK    6  A    between atoms: C_14  and  O_15
REMARK                            x       y       z     vdW  Elec       q    Type
REMARK                         _______ _______ _______ _____ _____    ______ ____
ROOT
ATOM      1  C   UNL     1       1.963  -1.855  -6.139  0.00  0.00    +0.000 C 
ATOM      2  C   UNL     1       1.026  -2.241  -7.048  0.00  0.00    +0.000 C 
ENDROOT
BRANCH   1   6
ATOM      3  C   UNL     1       0.867  -1.318  -2.046  0.00  0.00    +0.000 A 
ATOM      4  C   UNL     1      -0.120  -1.645  -2.961  0.00  0.00    +0.000 A 
ATOM      5  C   UNL     1       0.377  -2.014  -4.234  0.00  0.00    +0.000 A 
ATOM      6  C   UNL     1       1.595  -1.744  -4.669  0.00  0.00    +0.000 A 
ATOM      7  C   UNL     1       2.507  -1.361  -3.725  0.00  0.00    +0.000 A 
ATOM      8  C   UNL     1       2.121  -1.109  -2.430  0.00  0.00    +0.000 A 
BRANCH   3  10
ATOM      9  C   UNL     1       0.997  -0.071   0.070  0.00  0.00    +0.000 C 
ATOM     10  O   UNL     1       0.524  -1.184  -0.675  0.00  0.00    +0.000 OA
ENDBRANCH   3  10
ENDBRANCH   1   6
BRANCH   2  11
ATOM     11  C   UNL     1      -0.388  -2.560  -6.592  0.00  0.00    +0.000 A 
ATOM     12  C   UNL     1      -1.012  -3.702  -7.068  0.00  0.00    +0.000 A 
ATOM     13  C   UNL     1      -2.401  -3.749  -6.802  0.00  0.00    +0.000 A 
ATOM     14  C   UNL     1      -3.016  -3.008  -5.899  0.00  0.00    +0.000 A 
ATOM     15  C   UNL     1      -2.321  -1.934  -5.417  0.00  0.00    +0.000 A 
ATOM     16  C   UNL     1      -0.998  -1.748  -5.736  0.00  0.00    +0.000 A 
BRANCH  13  17
ATOM     17  O   UNL     1      -3.188  -4.657  -7.560  0.00  0.00    +0.000 OA
ATOM     18  H   UNL     1      -4.173  -4.718  -7.401  0.00  0.00    +0.000 HD
ENDBRANCH  13  17
BRANCH  15  19
ATOM     19  O   UNL     1      -2.976  -0.997  -4.575  0.00  0.00    +0.000 OA
ATOM     20  H   UNL     1      -2.474  -0.208  -4.219  0.00  0.00    +0.000 HD
ENDBRANCH  15  19
ENDBRANCH   2  11
TORSDOF 5
