REMARK  Name = 
REMARK  5 active torsions:
REMARK  status: ('A' for Active; 'I' for Inactive)
REMARK    1  A    between atoms: C_1  and  O_2
REMARK    2  A    between atoms: O_2  and  C_3
REMARK    3  A    between atoms: C_5  and  O_6
REMARK    4  A    between atoms: C_8  and  C_9
REMARK    5  A    between atoms: C_10  and  C_11
REMARK                            x       y       z     vdW  Elec       q    Type
REMARK                         _______ _______ _______ _____ _____    ______ ____
ROOT
ATOM      1  C   UNL     1       0.942  -2.332   0.346  0.00  0.00    +0.000 A 
ATOM      2  C   UNL     1       0.613  -3.445   1.082  0.00  0.00    +0.000 A 
ATOM      3  C   UNL     1       1.066  -4.691   0.693  0.00  0.00    +0.000 A 
ATOM      4  C   UNL     1       1.861  -4.822  -0.420  0.00  0.00    +0.000 A 
ATOM      5  C   UNL     1       2.221  -3.710  -1.149  0.00  0.00    +0.000 A 
ATOM      6  C   UNL     1       1.781  -2.434  -0.783  0.00  0.00    +0.000 A 
ENDROOT
BRANCH   1   8
ATOM      7  C   UNL     1       0.922   0.001   0.063  0.00  0.00    +0.000 C 
ATOM      8  O   UNL     1       0.449  -1.142   0.759  0.00  0.00    +0.000 OA
ENDBRANCH   1   8
BRANCH   3   9
ATOM      9  O   UNL     1       0.708  -5.840   1.446  0.00  0.00    +0.000 OA
ATOM     10  H   UNL     1       1.034  -6.743   1.166  0.00  0.00    +0.000 HD
ENDBRANCH   3   9
BRANCH   5  11
ATOM     11  C   UNL     1       3.111  -3.873  -2.370  0.00  0.00    +0.000 C 
ATOM     12  C   UNL     1       3.546  -5.109  -2.736  0.00  0.00    +0.000 C 
BRANCH  12  13
ATOM     13  C   UNL     1       4.436  -5.272  -3.957  0.00  0.00    +0.000 A 
ATOM     14  C   UNL     1       4.162  -6.279  -4.867  0.00  0.00    +0.000 A 
ATOM     15  C   UNL     1       5.203  -6.512  -5.796  0.00  0.00    +0.000 A 
ATOM     16  C   UNL     1       6.183  -5.665  -6.050  0.00  0.00    +0.000 A 
ATOM     17  C   UNL     1       6.360  -4.651  -5.150  0.00  0.00    +0.000 A 
ATOM     18  C   UNL     1       5.456  -4.440  -4.137  0.00  0.00    +0.000 A 
ENDBRANCH  12  13
ENDBRANCH   5  11
TORSDOF 4
