
 OpenBabel09262515163D

 34 35  0  0  0  0  0  0  0  0999 V2000
    0.9067   -0.0311   -0.0179 C   0  0  0  0  0  0  0  0  0  0  0  0
    0.4333   -0.4563   -1.2874 O   0  0  0  0  0  0  0  0  0  0  0  0
    0.7764    0.2759   -2.4547 C   0  0  0  0  0  0  0  0  0  0  0  0
   -0.1770    0.7150   -3.3585 C   0  0  0  0  0  0  0  0  0  0  0  0
    0.3666    1.3126   -4.5201 C   0  0  0  0  0  0  0  0  0  0  0  0
   -0.5379    1.4504   -5.7339 C   0  0  0  0  0  0  0  0  0  0  0  0
   -1.8225    1.0061   -5.6788 C   0  0  0  0  0  0  0  0  0  0  0  0
   -2.7271    1.1439   -6.8925 C   0  0  0  0  0  0  0  0  0  0  0  0
   -4.0197    1.6127   -6.7256 C   0  0  0  0  0  0  0  0  0  0  0  0
   -4.8466    1.4300   -7.8592 C   0  0  0  0  0  0  0  0  0  0  0  0
   -4.4025    1.1867   -9.0788 C   0  0  0  0  0  0  0  0  0  0  0  0
   -3.0973    0.7931   -9.1835 C   0  0  0  0  0  0  0  0  0  0  0  0
   -2.2617    0.8195   -8.0931 C   0  0  0  0  0  0  0  0  0  0  0  0
    1.6053    1.7590   -4.6231 C   0  0  0  0  0  0  0  0  0  0  0  0
    2.4833    1.3437   -3.6608 C   0  0  0  0  0  0  0  0  0  0  0  0
    3.8649    1.6411   -3.7988 O   0  0  0  0  0  0  0  0  0  0  0  0
    4.7857    1.2148   -2.8054 C   0  0  0  0  0  0  0  0  0  0  0  0
    2.0480    0.6428   -2.5621 C   0  0  0  0  0  0  0  0  0  0  0  0
    0.5500   -0.6993    0.7379 H   0  0  0  0  0  0  0  0  0  0  0  0
    0.5500    0.9575    0.1830 H   0  0  0  0  0  0  0  0  0  0  0  0
    1.9767   -0.0311   -0.0179 H   0  0  0  0  0  0  0  0  0  0  0  0
   -1.2291    0.6117   -3.1932 H   0  0  0  0  0  0  0  0  0  0  0  0
   -0.1643    1.8969   -6.6316 H   0  0  0  0  0  0  0  0  0  0  0  0
   -2.1962    0.5597   -4.7810 H   0  0  0  0  0  0  0  0  0  0  0  0
   -4.3620    2.0713   -5.8215 H   0  0  0  0  0  0  0  0  0  0  0  0
   -5.9054    1.4933   -7.7184 H   0  0  0  0  0  0  0  0  0  0  0  0
   -5.0303    1.2921   -9.9389 H   0  0  0  0  0  0  0  0  0  0  0  0
   -2.7212    0.4597  -10.1281 H   0  0  0  0  0  0  0  0  0  0  0  0
   -1.2265    0.5764   -8.2125 H   0  0  0  0  0  0  0  0  0  0  0  0
    1.9056    2.4105   -5.4170 H   0  0  0  0  0  0  0  0  0  0  0  0
    4.5207    1.6485   -1.8638 H   0  0  0  0  0  0  0  0  0  0  0  0
    4.7574    0.1480   -2.7273 H   0  0  0  0  0  0  0  0  0  0  0  0
    5.7727    1.5265   -3.0766 H   0  0  0  0  0  0  0  0  0  0  0  0
    2.7400    0.3904   -1.7860 H   0  0  0  0  0  0  0  0  0  0  0  0
  1  2  1  0  0  0  0
  1 19  1  0  0  0  0
  1 20  1  0  0  0  0
  1 21  1  0  0  0  0
  2  3  1  0  0  0  0
  3  4  1  0  0  0  0
  3 18  2  0  0  0  0
  4  5  2  0  0  0  0
  4 22  1  0  0  0  0
  5  6  1  0  0  0  0
  5 14  1  0  0  0  0
  6  7  2  0  0  0  0
  6 23  1  0  0  0  0
  7  8  1  0  0  0  0
  7 24  1  0  0  0  0
  8  9  1  0  0  0  0
  8 13  2  0  0  0  0
  9 10  2  0  0  0  0
  9 25  1  0  0  0  0
 10 11  1  0  0  0  0
 10 26  1  0  0  0  0
 11 12  2  0  0  0  0
 11 27  1  0  0  0  0
 12 13  1  0  0  0  0
 12 28  1  0  0  0  0
 13 29  1  0  0  0  0
 14 15  2  0  0  0  0
 14 30  1  0  0  0  0
 15 16  1  0  0  0  0
 15 18  1  0  0  0  0
 16 17  1  0  0  0  0
 17 31  1  0  0  0  0
 17 32  1  0  0  0  0
 17 33  1  0  0  0  0
 18 34  1  0  0  0  0
M  END
