REMARK  Name = 
REMARK  6 active torsions:
REMARK  status: ('A' for Active; 'I' for Inactive)
REMARK    1  A    between atoms: C_1  and  O_2
REMARK    2  A    between atoms: O_2  and  C_3
REMARK    3  A    between atoms: C_5  and  C_6
REMARK    4  A    between atoms: C_7  and  C_8
REMARK    5  A    between atoms: C_15  and  O_16
REMARK    6  A    between atoms: O_16  and  C_17
REMARK                            x       y       z     vdW  Elec       q    Type
REMARK                         _______ _______ _______ _____ _____    ______ ____
ROOT
ATOM      1  C   UNL     1       0.776   0.276  -2.455  0.00  0.00    +0.000 A 
ATOM      2  C   UNL     1      -0.177   0.715  -3.358  0.00  0.00    +0.000 A 
ATOM      3  C   UNL     1       0.367   1.313  -4.520  0.00  0.00    +0.000 A 
ATOM      4  C   UNL     1       1.605   1.759  -4.623  0.00  0.00    +0.000 A 
ATOM      5  C   UNL     1       2.483   1.344  -3.661  0.00  0.00    +0.000 A 
ATOM      6  C   UNL     1       2.048   0.643  -2.562  0.00  0.00    +0.000 A 
ENDROOT
BRANCH   1   8
ATOM      7  C   UNL     1       0.907  -0.031  -0.018  0.00  0.00    +0.000 C 
ATOM      8  O   UNL     1       0.433  -0.456  -1.287  0.00  0.00    +0.000 OA
ENDBRANCH   1   8
BRANCH   3   9
ATOM      9  C   UNL     1      -0.538   1.450  -5.734  0.00  0.00    +0.000 C 
ATOM     10  C   UNL     1      -1.823   1.006  -5.679  0.00  0.00    +0.000 C 
BRANCH  10  11
ATOM     11  C   UNL     1      -2.727   1.144  -6.893  0.00  0.00    +0.000 A 
ATOM     12  C   UNL     1      -4.020   1.613  -6.726  0.00  0.00    +0.000 A 
ATOM     13  C   UNL     1      -4.847   1.430  -7.859  0.00  0.00    +0.000 A 
ATOM     14  C   UNL     1      -4.402   1.187  -9.079  0.00  0.00    +0.000 A 
ATOM     15  C   UNL     1      -3.097   0.793  -9.184  0.00  0.00    +0.000 A 
ATOM     16  C   UNL     1      -2.262   0.820  -8.093  0.00  0.00    +0.000 A 
ENDBRANCH  10  11
ENDBRANCH   3   9
BRANCH   5  17
ATOM     17  O   UNL     1       3.865   1.641  -3.799  0.00  0.00    +0.000 OA
ATOM     18  C   UNL     1       4.786   1.215  -2.805  0.00  0.00    +0.000 C 
ENDBRANCH   5  17
TORSDOF 4
