
 OpenBabel09262515163D

 44 45  0  0  0  0  0  0  0  0999 V2000
    0.9295   -0.0570   -0.0422 O   0  0  0  0  0  0  0  0  0  0  0  0
    2.2004   -0.0570   -0.0422 C   0  0  0  0  0  0  0  0  0  0  0  0
    2.9604    0.4980   -1.2359 C   0  0  0  0  0  0  0  0  0  0  0  0
    3.8343    1.6573   -0.7856 C   0  0  0  0  0  0  0  0  0  0  0  0
    4.8221    1.1702    0.2620 C   0  0  0  0  0  0  0  0  0  0  0  0
    5.6959    0.0788   -0.3343 C   0  0  0  0  0  0  0  0  0  0  0  0
    6.4559    0.6338   -1.5279 C   0  0  0  0  0  0  0  0  0  0  0  0
    7.1171   -0.1982   -2.4045 C   0  0  0  0  0  0  0  0  0  0  0  0
    7.7223    0.3064   -3.5602 C   0  0  0  0  0  0  0  0  0  0  0  0
    7.6146    1.6915   -3.8021 C   0  0  0  0  0  0  0  0  0  0  0  0
    8.1478    2.2637   -4.9054 O   0  0  0  0  0  0  0  0  0  0  0  0
    6.9778    2.5156   -2.9051 C   0  0  0  0  0  0  0  0  0  0  0  0
    6.3909    1.9840   -1.7731 C   0  0  0  0  0  0  0  0  0  0  0  0
    2.9604   -0.6120    1.1514 C   0  0  0  0  0  0  0  0  0  0  0  0
    2.5932    0.1773    2.3974 C   0  0  0  0  0  0  0  0  0  0  0  0
    1.0988    0.0602    2.6493 C   0  0  0  0  0  0  0  0  0  0  0  0
    0.3312    1.1976    2.7702 C   0  0  0  0  0  0  0  0  0  0  0  0
   -1.0477    1.1169    2.9913 C   0  0  0  0  0  0  0  0  0  0  0  0
   -1.6226   -0.1685    3.0672 C   0  0  0  0  0  0  0  0  0  0  0  0
   -2.9505   -0.3430    3.2550 O   0  0  0  0  0  0  0  0  0  0  0  0
   -0.8417   -1.2958    2.9746 C   0  0  0  0  0  0  0  0  0  0  0  0
    0.5175   -1.1800    2.7562 C   0  0  0  0  0  0  0  0  0  0  0  0
    3.5756   -0.2703   -1.6556 H   0  0  0  0  0  0  0  0  0  0  0  0
    2.2651    0.8409   -1.9733 H   0  0  0  0  0  0  0  0  0  0  0  0
    4.3693    2.0480   -1.6259 H   0  0  0  0  0  0  0  0  0  0  0  0
    3.2191    2.4256   -0.3659 H   0  0  0  0  0  0  0  0  0  0  0  0
    5.4372    1.9863    0.5790 H   0  0  0  0  0  0  0  0  0  0  0  0
    4.2871    0.7795    1.1023 H   0  0  0  0  0  0  0  0  0  0  0  0
    6.3912   -0.2641    0.4032 H   0  0  0  0  0  0  0  0  0  0  0  0
    5.0808   -0.7373   -0.6512 H   0  0  0  0  0  0  0  0  0  0  0  0
    7.1685   -1.2469   -2.1980 H   0  0  0  0  0  0  0  0  0  0  0  0
    8.2480   -0.3353   -4.2362 H   0  0  0  0  0  0  0  0  0  0  0  0
    8.6195    1.6994   -5.5829 H   0  0  0  0  0  0  0  0  0  0  0  0
    6.9368    3.5698   -3.0837 H   0  0  0  0  0  0  0  0  0  0  0  0
    5.8834    2.6267   -1.0844 H   0  0  0  0  0  0  0  0  0  0  0  0
    2.7019   -1.6408    1.2918 H   0  0  0  0  0  0  0  0  0  0  0  0
    4.0124   -0.5296    0.9741 H   0  0  0  0  0  0  0  0  0  0  0  0
    3.1282   -0.2134    3.2377 H   0  0  0  0  0  0  0  0  0  0  0  0
    2.8517    1.2060    2.2570 H   0  0  0  0  0  0  0  0  0  0  0  0
    0.7969    2.1579    2.6939 H   0  0  0  0  0  0  0  0  0  0  0  0
   -1.6445    1.9985    3.0989 H   0  0  0  0  0  0  0  0  0  0  0  0
   -3.5538    0.4512    3.3277 H   0  0  0  0  0  0  0  0  0  0  0  0
   -1.2869   -2.2639    3.0717 H   0  0  0  0  0  0  0  0  0  0  0  0
    1.1200   -2.0600    2.6700 H   0  0  0  0  0  0  0  0  0  0  0  0
  1  2  2  0  0  0  0
  2  3  1  0  0  0  0
  2 14  1  0  0  0  0
  3  4  1  0  0  0  0
  3 23  1  0  0  0  0
  3 24  1  0  0  0  0
  4  5  1  0  0  0  0
  4 25  1  0  0  0  0
  4 26  1  0  0  0  0
  5  6  1  0  0  0  0
  5 27  1  0  0  0  0
  5 28  1  0  0  0  0
  6  7  1  0  0  0  0
  6 29  1  0  0  0  0
  6 30  1  0  0  0  0
  7  8  1  0  0  0  0
  7 13  2  0  0  0  0
  8  9  2  0  0  0  0
  8 31  1  0  0  0  0
  9 10  1  0  0  0  0
  9 32  1  0  0  0  0
 10 11  1  0  0  0  0
 10 12  2  0  0  0  0
 11 33  1  0  0  0  0
 12 13  1  0  0  0  0
 12 34  1  0  0  0  0
 13 35  1  0  0  0  0
 14 15  1  0  0  0  0
 14 36  1  0  0  0  0
 14 37  1  0  0  0  0
 15 16  1  0  0  0  0
 15 38  1  0  0  0  0
 15 39  1  0  0  0  0
 16 17  1  0  0  0  0
 16 22  2  0  0  0  0
 17 18  2  0  0  0  0
 17 40  1  0  0  0  0
 18 19  1  0  0  0  0
 18 41  1  0  0  0  0
 19 20  1  0  0  0  0
 19 21  2  0  0  0  0
 20 42  1  0  0  0  0
 21 22  1  0  0  0  0
 21 43  1  0  0  0  0
 22 44  1  0  0  0  0
M  END
