REMARK  Name = 
REMARK  10 active torsions:
REMARK  status: ('A' for Active; 'I' for Inactive)
REMARK    1  A    between atoms: C_2  and  C_3
REMARK    2  A    between atoms: C_2  and  C_14
REMARK    3  A    between atoms: C_3  and  C_4
REMARK    4  A    between atoms: C_4  and  C_5
REMARK    5  A    between atoms: C_5  and  C_6
REMARK    6  A    between atoms: C_6  and  C_7
REMARK    7  A    between atoms: C_10  and  O_11
REMARK    8  A    between atoms: C_14  and  C_15
REMARK    9  A    between atoms: C_15  and  C_16
REMARK   10  A    between atoms: C_19  and  O_20
REMARK                            x       y       z     vdW  Elec       q    Type
REMARK                         _______ _______ _______ _____ _____    ______ ____
ROOT
ATOM      1  O   UNL     1       0.929  -0.057  -0.042  0.00  0.00    +0.000 OA
ATOM      2  C   UNL     1       2.200  -0.057  -0.042  0.00  0.00    +0.000 C 
ENDROOT
BRANCH   2   3
ATOM      3  C   UNL     1       2.960   0.498  -1.236  0.00  0.00    +0.000 C 
BRANCH   3   4
ATOM      4  C   UNL     1       3.834   1.657  -0.786  0.00  0.00    +0.000 C 
BRANCH   4   5
ATOM      5  C   UNL     1       4.822   1.170   0.262  0.00  0.00    +0.000 C 
BRANCH   5   6
ATOM      6  C   UNL     1       5.696   0.079  -0.334  0.00  0.00    +0.000 C 
BRANCH   6   7
ATOM      7  C   UNL     1       6.456   0.634  -1.528  0.00  0.00    +0.000 A 
ATOM      8  C   UNL     1       7.117  -0.198  -2.405  0.00  0.00    +0.000 A 
ATOM      9  C   UNL     1       7.722   0.306  -3.560  0.00  0.00    +0.000 A 
ATOM     10  C   UNL     1       7.615   1.692  -3.802  0.00  0.00    +0.000 A 
ATOM     11  C   UNL     1       6.978   2.516  -2.905  0.00  0.00    +0.000 A 
ATOM     12  C   UNL     1       6.391   1.984  -1.773  0.00  0.00    +0.000 A 
BRANCH  10  13
ATOM     13  O   UNL     1       8.148   2.264  -4.905  0.00  0.00    +0.000 OA
ATOM     14  H   UNL     1       8.620   1.699  -5.583  0.00  0.00    +0.000 HD
ENDBRANCH  10  13
ENDBRANCH   6   7
ENDBRANCH   5   6
ENDBRANCH   4   5
ENDBRANCH   3   4
ENDBRANCH   2   3
BRANCH   2  15
ATOM     15  C   UNL     1       2.960  -0.612   1.151  0.00  0.00    +0.000 C 
BRANCH  15  16
ATOM     16  C   UNL     1       2.593   0.177   2.397  0.00  0.00    +0.000 C 
BRANCH  16  17
ATOM     17  C   UNL     1       1.099   0.060   2.649  0.00  0.00    +0.000 A 
ATOM     18  C   UNL     1       0.331   1.198   2.770  0.00  0.00    +0.000 A 
ATOM     19  C   UNL     1      -1.048   1.117   2.991  0.00  0.00    +0.000 A 
ATOM     20  C   UNL     1      -1.623  -0.169   3.067  0.00  0.00    +0.000 A 
ATOM     21  C   UNL     1      -0.842  -1.296   2.975  0.00  0.00    +0.000 A 
ATOM     22  C   UNL     1       0.517  -1.180   2.756  0.00  0.00    +0.000 A 
BRANCH  20  23
ATOM     23  O   UNL     1      -2.950  -0.343   3.255  0.00  0.00    +0.000 OA
ATOM     24  H   UNL     1      -3.554   0.451   3.328  0.00  0.00    +0.000 HD
ENDBRANCH  20  23
ENDBRANCH  16  17
ENDBRANCH  15  16
ENDBRANCH   2  15
TORSDOF 10
