REMARK  Name = 
REMARK  7 active torsions:
REMARK  status: ('A' for Active; 'I' for Inactive)
REMARK    1  A    between atoms: C_1  and  O_2
REMARK    2  A    between atoms: O_2  and  C_3
REMARK    3  A    between atoms: C_5  and  C_6
REMARK    4  A    between atoms: C_7  and  C_8
REMARK    5  A    between atoms: C_11  and  O_12
REMARK    6  A    between atoms: C_16  and  O_17
REMARK    7  A    between atoms: O_17  and  C_18
REMARK                            x       y       z     vdW  Elec       q    Type
REMARK                         _______ _______ _______ _____ _____    ______ ____
ROOT
ATOM      1  C   UNL     1       0.808   0.638   2.408  0.00  0.00    +0.000 A 
ATOM      2  C   UNL     1      -0.164   0.796   3.382  0.00  0.00    +0.000 A 
ATOM      3  C   UNL     1       0.353   0.906   4.694  0.00  0.00    +0.000 A 
ATOM      4  C   UNL     1       1.570   0.542   5.053  0.00  0.00    +0.000 A 
ATOM      5  C   UNL     1       2.466   0.335   4.041  0.00  0.00    +0.000 A 
ATOM      6  C   UNL     1       2.062   0.342   2.728  0.00  0.00    +0.000 A 
ENDROOT
BRANCH   1   8
ATOM      7  C   UNL     1       0.939  -0.059   0.052  0.00  0.00    +0.000 C 
ATOM      8  O   UNL     1       0.465   0.840   1.044  0.00  0.00    +0.000 OA
ENDBRANCH   1   8
BRANCH   3   9
ATOM      9  C   UNL     1      -0.557   1.484   5.766  0.00  0.00    +0.000 C 
ATOM     10  C   UNL     1      -1.821   1.874   5.448  0.00  0.00    +0.000 C 
BRANCH  10  11
ATOM     11  C   UNL     1      -2.731   2.451   6.520  0.00  0.00    +0.000 A 
ATOM     12  C   UNL     1      -4.061   2.063   6.527  0.00  0.00    +0.000 A 
ATOM     13  C   UNL     1      -4.901   2.910   7.289  0.00  0.00    +0.000 A 
ATOM     14  C   UNL     1      -4.474   3.763   8.201  0.00  0.00    +0.000 A 
ATOM     15  C   UNL     1      -3.138   4.053   8.186  0.00  0.00    +0.000 A 
ATOM     16  C   UNL     1      -2.274   3.359   7.373  0.00  0.00    +0.000 A 
BRANCH  14  17
ATOM     17  O   UNL     1      -5.356   4.349   9.148  0.00  0.00    +0.000 OA
ATOM     18  H   UNL     1      -5.003   4.992   9.828  0.00  0.00    +0.000 HD
ENDBRANCH  14  17
ENDBRANCH  10  11
ENDBRANCH   3   9
BRANCH   5  19
ATOM     19  O   UNL     1       3.833   0.110   4.352  0.00  0.00    +0.000 OA
ATOM     20  C   UNL     1       4.772  -0.106   3.308  0.00  0.00    +0.000 C 
ENDBRANCH   5  19
TORSDOF 5
