
 OpenBabel09262515163D

 34 35  0  0  0  0  0  0  0  0999 V2000
    1.0033   -0.0940    0.0340 C   0  0  0  0  0  0  0  0  0  0  0  0
    0.5300    0.2303   -1.2649 O   0  0  0  0  0  0  0  0  0  0  0  0
    0.1202   -0.7427   -2.1100 C   0  0  0  0  0  0  0  0  0  0  0  0
   -0.2563   -0.3653   -3.3769 C   0  0  0  0  0  0  0  0  0  0  0  0
   -0.6586   -1.3187   -4.2921 C   0  0  0  0  0  0  0  0  0  0  0  0
   -1.0541   -0.8984   -5.6983 C   0  0  0  0  0  0  0  0  0  0  0  0
   -1.0116    0.4142   -6.0532 C   0  0  0  0  0  0  0  0  0  0  0  0
   -1.4072    0.8345   -7.4594 C   0  0  0  0  0  0  0  0  0  0  0  0
   -1.3675    2.0608   -7.7909 O   0  0  0  0  0  0  0  0  0  0  0  0
   -1.8503   -0.2118   -8.4690 C   0  0  0  0  0  0  0  0  0  0  0  0
   -2.7361   -1.2161   -8.1457 C   0  0  0  0  0  0  0  0  0  0  0  0
   -3.2772   -2.0459   -9.1333 C   0  0  0  0  0  0  0  0  0  0  0  0
   -2.8967   -1.8043  -10.4696 C   0  0  0  0  0  0  0  0  0  0  0  0
   -3.3874   -2.5407  -11.4922 O   0  0  0  0  0  0  0  0  0  0  0  0
   -1.9893   -0.8185  -10.7761 C   0  0  0  0  0  0  0  0  0  0  0  0
   -1.4741   -0.0169   -9.7759 C   0  0  0  0  0  0  0  0  0  0  0  0
   -0.7026   -2.6451   -3.9369 C   0  0  0  0  0  0  0  0  0  0  0  0
   -0.3561   -3.0321   -2.6610 C   0  0  0  0  0  0  0  0  0  0  0  0
    0.0559   -2.0933   -1.7094 C   0  0  0  0  0  0  0  0  0  0  0  0
    0.3970   -2.4859   -0.3881 O   0  0  0  0  0  0  0  0  0  0  0  0
    0.6466   -1.0638    0.3118 H   0  0  0  0  0  0  0  0  0  0  0  0
    0.6466    0.6315    0.7350 H   0  0  0  0  0  0  0  0  0  0  0  0
    2.0733   -0.0940    0.0340 H   0  0  0  0  0  0  0  0  0  0  0  0
   -0.2379    0.6679   -3.6545 H   0  0  0  0  0  0  0  0  0  0  0  0
   -1.3660   -1.6349   -6.4090 H   0  0  0  0  0  0  0  0  0  0  0  0
   -0.6997    1.1508   -5.3425 H   0  0  0  0  0  0  0  0  0  0  0  0
   -3.0146   -1.3636   -7.1232 H   0  0  0  0  0  0  0  0  0  0  0  0
   -3.9552   -2.8352   -8.8839 H   0  0  0  0  0  0  0  0  0  0  0  0
   -4.0498   -3.2678  -11.3120 H   0  0  0  0  0  0  0  0  0  0  0  0
   -1.6817   -0.6717  -11.7904 H   0  0  0  0  0  0  0  0  0  0  0  0
   -0.7790    0.7592  -10.0201 H   0  0  0  0  0  0  0  0  0  0  0  0
   -1.0068   -3.3795   -4.6531 H   0  0  0  0  0  0  0  0  0  0  0  0
   -0.4029   -4.0672   -2.3937 H   0  0  0  0  0  0  0  0  0  0  0  0
    0.6893   -1.7995    0.2778 H   0  0  0  0  0  0  0  0  0  0  0  0
  1  2  1  0  0  0  0
  1 21  1  0  0  0  0
  1 22  1  0  0  0  0
  1 23  1  0  0  0  0
  2  3  1  0  0  0  0
  3  4  1  0  0  0  0
  3 19  2  0  0  0  0
  4  5  2  0  0  0  0
  4 24  1  0  0  0  0
  5  6  1  0  0  0  0
  5 17  1  0  0  0  0
  6  7  2  0  0  0  0
  6 25  1  0  0  0  0
  7  8  1  0  0  0  0
  7 26  1  0  0  0  0
  8  9  2  0  0  0  0
  8 10  1  0  0  0  0
 10 11  1  0  0  0  0
 10 16  2  0  0  0  0
 11 12  2  0  0  0  0
 11 27  1  0  0  0  0
 12 13  1  0  0  0  0
 12 28  1  0  0  0  0
 13 14  1  0  0  0  0
 13 15  2  0  0  0  0
 14 29  1  0  0  0  0
 15 16  1  0  0  0  0
 15 30  1  0  0  0  0
 16 31  1  0  0  0  0
 17 18  2  0  0  0  0
 17 32  1  0  0  0  0
 18 19  1  0  0  0  0
 18 33  1  0  0  0  0
 19 20  1  0  0  0  0
 20 34  1  0  0  0  0
M  END
