REMARK  Name = 
REMARK  7 active torsions:
REMARK  status: ('A' for Active; 'I' for Inactive)
REMARK    1  A    between atoms: C_1  and  O_2
REMARK    2  A    between atoms: O_2  and  C_3
REMARK    3  A    between atoms: C_5  and  C_6
REMARK    4  A    between atoms: C_7  and  C_8
REMARK    5  A    between atoms: C_8  and  C_10
REMARK    6  A    between atoms: C_13  and  O_14
REMARK    7  A    between atoms: C_19  and  O_20
REMARK                            x       y       z     vdW  Elec       q    Type
REMARK                         _______ _______ _______ _____ _____    ______ ____
ROOT
ATOM      1  C   UNL     1      -1.054  -0.898  -5.698  0.00  0.00    +0.000 C 
ATOM      2  C   UNL     1      -1.012   0.414  -6.053  0.00  0.00    +0.000 C 
ENDROOT
BRANCH   1   5
ATOM      3  C   UNL     1       0.120  -0.743  -2.110  0.00  0.00    +0.000 A 
ATOM      4  C   UNL     1      -0.256  -0.365  -3.377  0.00  0.00    +0.000 A 
ATOM      5  C   UNL     1      -0.659  -1.319  -4.292  0.00  0.00    +0.000 A 
ATOM      6  C   UNL     1      -0.703  -2.645  -3.937  0.00  0.00    +0.000 A 
ATOM      7  C   UNL     1      -0.356  -3.032  -2.661  0.00  0.00    +0.000 A 
ATOM      8  C   UNL     1       0.056  -2.093  -1.709  0.00  0.00    +0.000 A 
BRANCH   3  10
ATOM      9  C   UNL     1       1.003  -0.094   0.034  0.00  0.00    +0.000 C 
ATOM     10  O   UNL     1       0.530   0.230  -1.265  0.00  0.00    +0.000 OA
ENDBRANCH   3  10
BRANCH   8  11
ATOM     11  O   UNL     1       0.397  -2.486  -0.388  0.00  0.00    +0.000 OA
ATOM     12  H   UNL     1       0.689  -1.800   0.278  0.00  0.00    +0.000 HD
ENDBRANCH   8  11
ENDBRANCH   1   5
BRANCH   2  13
ATOM     13  C   UNL     1      -1.407   0.835  -7.459  0.00  0.00    +0.000 C 
ATOM     14  O   UNL     1      -1.367   2.061  -7.791  0.00  0.00    +0.000 OA
BRANCH  13  15
ATOM     15  C   UNL     1      -1.850  -0.212  -8.469  0.00  0.00    +0.000 A 
ATOM     16  C   UNL     1      -2.736  -1.216  -8.146  0.00  0.00    +0.000 A 
ATOM     17  C   UNL     1      -3.277  -2.046  -9.133  0.00  0.00    +0.000 A 
ATOM     18  C   UNL     1      -2.897  -1.804 -10.470  0.00  0.00    +0.000 A 
ATOM     19  C   UNL     1      -1.989  -0.819 -10.776  0.00  0.00    +0.000 A 
ATOM     20  C   UNL     1      -1.474  -0.017  -9.776  0.00  0.00    +0.000 A 
BRANCH  18  21
ATOM     21  O   UNL     1      -3.387  -2.541 -11.492  0.00  0.00    +0.000 OA
ATOM     22  H   UNL     1      -4.050  -3.268 -11.312  0.00  0.00    +0.000 HD
ENDBRANCH  18  21
ENDBRANCH  13  15
ENDBRANCH   2  13
TORSDOF 6
