
 OpenBabel09262515163D

 44 45  0  0  0  0  0  0  0  0999 V2000
    1.0966   -0.0192    0.0173 C   0  0  0  0  0  0  0  0  0  0  0  0
    0.6233    0.4624    1.2665 O   0  0  0  0  0  0  0  0  0  0  0  0
    0.9663   -0.2169    2.4654 C   0  0  0  0  0  0  0  0  0  0  0  0
    0.0239   -0.3180    3.4754 C   0  0  0  0  0  0  0  0  0  0  0  0
    0.5769   -0.5785    4.7515 C   0  0  0  0  0  0  0  0  0  0  0  0
    1.7953   -1.0436    4.9590 C   0  0  0  0  0  0  0  0  0  0  0  0
    2.2145   -1.6205    6.3013 C   0  0  0  0  0  0  0  0  0  0  0  0
    1.3246   -1.6678    7.3292 C   0  0  0  0  0  0  0  0  0  0  0  0
    1.7439   -2.2447    8.6715 C   0  0  0  0  0  0  0  0  0  0  0  0
    0.9125   -2.2888    9.6317 O   0  0  0  0  0  0  0  0  0  0  0  0
    3.1574   -2.7689    8.8653 C   0  0  0  0  0  0  0  0  0  0  0  0
    3.3493   -3.9821    9.5057 C   0  0  0  0  0  0  0  0  0  0  0  0
    4.6906   -4.2235    9.8862 C   0  0  0  0  0  0  0  0  0  0  0  0
    4.9298   -5.2249   10.8641 O   0  0  0  0  0  0  0  0  0  0  0  0
    6.2574   -5.5069   11.2816 C   0  0  0  0  0  0  0  0  0  0  0  0
    5.7354   -3.5823    9.3951 C   0  0  0  0  0  0  0  0  0  0  0  0
    7.0590   -4.0678    9.5653 O   0  0  0  0  0  0  0  0  0  0  0  0
    8.1549   -3.3474    9.0209 C   0  0  0  0  0  0  0  0  0  0  0  0
    5.4743   -2.4259    8.7139 C   0  0  0  0  0  0  0  0  0  0  0  0
    6.5515   -1.5954    8.3063 O   0  0  0  0  0  0  0  0  0  0  0  0
    6.2918   -0.3921    7.5984 C   0  0  0  0  0  0  0  0  0  0  0  0
    4.1845   -2.0559    8.4183 C   0  0  0  0  0  0  0  0  0  0  0  0
    2.6595   -0.9782    3.9014 C   0  0  0  0  0  0  0  0  0  0  0  0
    2.2217   -0.6067    2.6531 C   0  0  0  0  0  0  0  0  0  0  0  0
    0.7399    0.6146   -0.7676 H   0  0  0  0  0  0  0  0  0  0  0  0
    0.7399   -1.0158   -0.1391 H   0  0  0  0  0  0  0  0  0  0  0  0
    2.1666   -0.0192    0.0173 H   0  0  0  0  0  0  0  0  0  0  0  0
   -1.0270   -0.2089    3.3061 H   0  0  0  0  0  0  0  0  0  0  0  0
   -0.0347   -0.3852    5.6080 H   0  0  0  0  0  0  0  0  0  0  0  0
    3.2096   -1.9896    6.4378 H   0  0  0  0  0  0  0  0  0  0  0  0
    0.3296   -1.2987    7.1927 H   0  0  0  0  0  0  0  0  0  0  0  0
    2.5554   -4.6738    9.6954 H   0  0  0  0  0  0  0  0  0  0  0  0
    6.8362   -5.8245   10.4395 H   0  0  0  0  0  0  0  0  0  0  0  0
    6.6939   -4.6253   11.7023 H   0  0  0  0  0  0  0  0  0  0  0  0
    6.2425   -6.2836   12.0174 H   0  0  0  0  0  0  0  0  0  0  0  0
    8.0413   -3.2734    7.9596 H   0  0  0  0  0  0  0  0  0  0  0  0
    8.1830   -2.3659    9.4460 H   0  0  0  0  0  0  0  0  0  0  0  0
    9.0664   -3.8602    9.2471 H   0  0  0  0  0  0  0  0  0  0  0  0
    5.7802   -0.6183    6.6862 H   0  0  0  0  0  0  0  0  0  0  0  0
    5.6827    0.2507    8.1989 H   0  0  0  0  0  0  0  0  0  0  0  0
    7.2168    0.0979    7.3765 H   0  0  0  0  0  0  0  0  0  0  0  0
    4.0061   -1.1853    7.8223 H   0  0  0  0  0  0  0  0  0  0  0  0
    3.6915   -1.2199    4.0480 H   0  0  0  0  0  0  0  0  0  0  0  0
    2.8985   -0.6318    1.8248 H   0  0  0  0  0  0  0  0  0  0  0  0
  1  2  1  0  0  0  0
  1 25  1  0  0  0  0
  1 26  1  0  0  0  0
  1 27  1  0  0  0  0
  2  3  1  0  0  0  0
  3  4  1  0  0  0  0
  3 24  2  0  0  0  0
  4  5  2  0  0  0  0
  4 28  1  0  0  0  0
  5  6  1  0  0  0  0
  5 29  1  0  0  0  0
  6  7  1  0  0  0  0
  6 23  2  0  0  0  0
  7  8  2  0  0  0  0
  7 30  1  0  0  0  0
  8  9  1  0  0  0  0
  8 31  1  0  0  0  0
  9 10  2  0  0  0  0
  9 11  1  0  0  0  0
 11 12  1  0  0  0  0
 11 22  2  0  0  0  0
 12 13  2  0  0  0  0
 12 32  1  0  0  0  0
 13 14  1  0  0  0  0
 13 16  1  0  0  0  0
 14 15  1  0  0  0  0
 15 33  1  0  0  0  0
 15 34  1  0  0  0  0
 15 35  1  0  0  0  0
 16 17  1  0  0  0  0
 16 19  2  0  0  0  0
 17 18  1  0  0  0  0
 18 36  1  0  0  0  0
 18 37  1  0  0  0  0
 18 38  1  0  0  0  0
 19 20  1  0  0  0  0
 19 22  1  0  0  0  0
 20 21  1  0  0  0  0
 21 39  1  0  0  0  0
 21 40  1  0  0  0  0
 21 41  1  0  0  0  0
 22 42  1  0  0  0  0
 23 24  1  0  0  0  0
 23 43  1  0  0  0  0
 24 44  1  0  0  0  0
M  END
