REMARK  Name = 
REMARK  11 active torsions:
REMARK  status: ('A' for Active; 'I' for Inactive)
REMARK    1  A    between atoms: C_1  and  O_2
REMARK    2  A    between atoms: O_2  and  C_3
REMARK    3  A    between atoms: C_6  and  C_7
REMARK    4  A    between atoms: C_8  and  C_9
REMARK    5  A    between atoms: C_9  and  C_11
REMARK    6  A    between atoms: C_13  and  O_14
REMARK    7  A    between atoms: O_14  and  C_15
REMARK    8  A    between atoms: C_16  and  O_17
REMARK    9  A    between atoms: O_17  and  C_18
REMARK   10  A    between atoms: C_19  and  O_20
REMARK   11  A    between atoms: O_20  and  C_21
REMARK                            x       y       z     vdW  Elec       q    Type
REMARK                         _______ _______ _______ _____ _____    ______ ____
ROOT
ATOM      1  C   UNL     1       1.744  -2.245   8.671  0.00  0.00    +0.000 C 
ATOM      2  O   UNL     1       0.912  -2.289   9.632  0.00  0.00    +0.000 OA
ENDROOT
BRANCH   1   3
ATOM      3  C   UNL     1       3.157  -2.769   8.865  0.00  0.00    +0.000 A 
ATOM      4  C   UNL     1       3.349  -3.982   9.506  0.00  0.00    +0.000 A 
ATOM      5  C   UNL     1       4.691  -4.223   9.886  0.00  0.00    +0.000 A 
ATOM      6  C   UNL     1       5.735  -3.582   9.395  0.00  0.00    +0.000 A 
ATOM      7  C   UNL     1       5.474  -2.426   8.714  0.00  0.00    +0.000 A 
ATOM      8  C   UNL     1       4.184  -2.056   8.418  0.00  0.00    +0.000 A 
BRANCH   5   9
ATOM      9  O   UNL     1       4.930  -5.225  10.864  0.00  0.00    +0.000 OA
ATOM     10  C   UNL     1       6.257  -5.507  11.282  0.00  0.00    +0.000 C 
ENDBRANCH   5   9
BRANCH   6  11
ATOM     11  O   UNL     1       7.059  -4.068   9.565  0.00  0.00    +0.000 OA
ATOM     12  C   UNL     1       8.155  -3.347   9.021  0.00  0.00    +0.000 C 
ENDBRANCH   6  11
BRANCH   7  13
ATOM     13  O   UNL     1       6.551  -1.595   8.306  0.00  0.00    +0.000 OA
ATOM     14  C   UNL     1       6.292  -0.392   7.598  0.00  0.00    +0.000 C 
ENDBRANCH   7  13
ENDBRANCH   1   3
BRANCH   1  16
ATOM     15  C   UNL     1       2.215  -1.621   6.301  0.00  0.00    +0.000 C 
ATOM     16  C   UNL     1       1.325  -1.668   7.329  0.00  0.00    +0.000 C 
BRANCH  15  20
ATOM     17  C   UNL     1       0.966  -0.217   2.465  0.00  0.00    +0.000 A 
ATOM     18  C   UNL     1       0.024  -0.318   3.475  0.00  0.00    +0.000 A 
ATOM     19  C   UNL     1       0.577  -0.579   4.752  0.00  0.00    +0.000 A 
ATOM     20  C   UNL     1       1.795  -1.044   4.959  0.00  0.00    +0.000 A 
ATOM     21  C   UNL     1       2.659  -0.978   3.901  0.00  0.00    +0.000 A 
ATOM     22  C   UNL     1       2.222  -0.607   2.653  0.00  0.00    +0.000 A 
BRANCH  17  24
ATOM     23  C   UNL     1       1.097  -0.019   0.017  0.00  0.00    +0.000 C 
ATOM     24  O   UNL     1       0.623   0.462   1.266  0.00  0.00    +0.000 OA
ENDBRANCH  17  24
ENDBRANCH  15  20
ENDBRANCH   1  16
TORSDOF 7
