
 OpenBabel09262515163D

 34 35  0  0  0  0  0  0  0  0999 V2000
    1.0776    0.0121    0.0619 C   0  0  0  0  0  0  0  0  0  0  0  0
    0.6042   -1.2363   -0.4217 O   0  0  0  0  0  0  0  0  0  0  0  0
    0.9473   -1.6669   -1.7306 C   0  0  0  0  0  0  0  0  0  0  0  0
   -0.0798   -2.1002   -2.5527 C   0  0  0  0  0  0  0  0  0  0  0  0
    0.3623   -2.6775   -3.7666 C   0  0  0  0  0  0  0  0  0  0  0  0
    1.5706   -2.5184   -4.2752 C   0  0  0  0  0  0  0  0  0  0  0  0
    1.8832   -2.8680   -5.7211 C   0  0  0  0  0  0  0  0  0  0  0  0
    0.9051   -3.3594   -6.5289 C   0  0  0  0  0  0  0  0  0  0  0  0
    1.2178   -3.7090   -7.9747 C   0  0  0  0  0  0  0  0  0  0  0  0
    0.3041   -4.1681   -8.7294 O   0  0  0  0  0  0  0  0  0  0  0  0
    2.6234   -3.5095   -8.5179 C   0  0  0  0  0  0  0  0  0  0  0  0
    2.7961   -2.9142   -9.7566 C   0  0  0  0  0  0  0  0  0  0  0  0
    4.1053   -3.0438  -10.2773 C   0  0  0  0  0  0  0  0  0  0  0  0
    5.1688   -3.3586   -9.5604 C   0  0  0  0  0  0  0  0  0  0  0  0
    6.4867   -3.1669  -10.0530 O   0  0  0  0  0  0  0  0  0  0  0  0
    4.9325   -3.8789   -8.3183 C   0  0  0  0  0  0  0  0  0  0  0  0
    3.6630   -3.9067   -7.7936 C   0  0  0  0  0  0  0  0  0  0  0  0
    3.4608   -4.3643   -6.4646 O   0  0  0  0  0  0  0  0  0  0  0  0
    2.5251   -2.0223   -3.4314 C   0  0  0  0  0  0  0  0  0  0  0  0
    2.1918   -1.5600   -2.1811 C   0  0  0  0  0  0  0  0  0  0  0  0
    0.7209    0.1669    1.0588 H   0  0  0  0  0  0  0  0  0  0  0  0
    0.7209    0.7981   -0.5706 H   0  0  0  0  0  0  0  0  0  0  0  0
    2.1476    0.0121    0.0619 H   0  0  0  0  0  0  0  0  0  0  0  0
   -1.1137   -2.0068   -2.2935 H   0  0  0  0  0  0  0  0  0  0  0  0
   -0.3306   -3.2852   -4.3101 H   0  0  0  0  0  0  0  0  0  0  0  0
    2.8727   -2.7276   -6.1035 H   0  0  0  0  0  0  0  0  0  0  0  0
   -0.0843   -3.4998   -6.1464 H   0  0  0  0  0  0  0  0  0  0  0  0
    2.0108   -2.4027  -10.2728 H   0  0  0  0  0  0  0  0  0  0  0  0
    4.2434   -2.8751  -11.3249 H   0  0  0  0  0  0  0  0  0  0  0  0
    7.2730   -3.4148   -9.4870 H   0  0  0  0  0  0  0  0  0  0  0  0
    5.7480   -4.2701   -7.7466 H   0  0  0  0  0  0  0  0  0  0  0  0
    2.5387   -4.3864   -6.0782 H   0  0  0  0  0  0  0  0  0  0  0  0
    3.5465   -1.9937   -3.7491 H   0  0  0  0  0  0  0  0  0  0  0  0
    2.9419   -1.1098   -1.5650 H   0  0  0  0  0  0  0  0  0  0  0  0
  1  2  1  0  0  0  0
  1 21  1  0  0  0  0
  1 22  1  0  0  0  0
  1 23  1  0  0  0  0
  2  3  1  0  0  0  0
  3  4  1  0  0  0  0
  3 20  2  0  0  0  0
  4  5  2  0  0  0  0
  4 24  1  0  0  0  0
  5  6  1  0  0  0  0
  5 25  1  0  0  0  0
  6  7  1  0  0  0  0
  6 19  2  0  0  0  0
  7  8  2  0  0  0  0
  7 26  1  0  0  0  0
  8  9  1  0  0  0  0
  8 27  1  0  0  0  0
  9 10  2  0  0  0  0
  9 11  1  0  0  0  0
 11 12  1  0  0  0  0
 11 17  2  0  0  0  0
 12 13  2  0  0  0  0
 12 28  1  0  0  0  0
 13 14  1  0  0  0  0
 13 29  1  0  0  0  0
 14 15  1  0  0  0  0
 14 16  2  0  0  0  0
 15 30  1  0  0  0  0
 16 17  1  0  0  0  0
 16 31  1  0  0  0  0
 17 18  1  0  0  0  0
 18 32  1  0  0  0  0
 19 20  1  0  0  0  0
 19 33  1  0  0  0  0
 20 34  1  0  0  0  0
M  END
