REMARK  Name = 
REMARK  7 active torsions:
REMARK  status: ('A' for Active; 'I' for Inactive)
REMARK    1  A    between atoms: C_1  and  O_2
REMARK    2  A    between atoms: O_2  and  C_3
REMARK    3  A    between atoms: C_6  and  C_7
REMARK    4  A    between atoms: C_8  and  C_9
REMARK    5  A    between atoms: C_9  and  C_11
REMARK    6  A    between atoms: C_14  and  O_15
REMARK    7  A    between atoms: C_17  and  O_18
REMARK                            x       y       z     vdW  Elec       q    Type
REMARK                         _______ _______ _______ _____ _____    ______ ____
ROOT
ATOM      1  C   UNL     1       1.218  -3.709  -7.975  0.00  0.00    +0.000 C 
ATOM      2  O   UNL     1       0.304  -4.168  -8.729  0.00  0.00    +0.000 OA
ENDROOT
BRANCH   1   3
ATOM      3  C   UNL     1       2.623  -3.510  -8.518  0.00  0.00    +0.000 A 
ATOM      4  C   UNL     1       2.796  -2.914  -9.757  0.00  0.00    +0.000 A 
ATOM      5  C   UNL     1       4.105  -3.044 -10.277  0.00  0.00    +0.000 A 
ATOM      6  C   UNL     1       5.169  -3.359  -9.560  0.00  0.00    +0.000 A 
ATOM      7  C   UNL     1       4.933  -3.879  -8.318  0.00  0.00    +0.000 A 
ATOM      8  C   UNL     1       3.663  -3.907  -7.794  0.00  0.00    +0.000 A 
BRANCH   6   9
ATOM      9  O   UNL     1       6.487  -3.167 -10.053  0.00  0.00    +0.000 OA
ATOM     10  H   UNL     1       7.273  -3.415  -9.487  0.00  0.00    +0.000 HD
ENDBRANCH   6   9
BRANCH   8  11
ATOM     11  O   UNL     1       3.461  -4.364  -6.465  0.00  0.00    +0.000 OA
ATOM     12  H   UNL     1       2.539  -4.386  -6.078  0.00  0.00    +0.000 HD
ENDBRANCH   8  11
ENDBRANCH   1   3
BRANCH   1  14
ATOM     13  C   UNL     1       1.883  -2.868  -5.721  0.00  0.00    +0.000 C 
ATOM     14  C   UNL     1       0.905  -3.359  -6.529  0.00  0.00    +0.000 C 
BRANCH  13  18
ATOM     15  C   UNL     1       0.947  -1.667  -1.731  0.00  0.00    +0.000 A 
ATOM     16  C   UNL     1      -0.080  -2.100  -2.553  0.00  0.00    +0.000 A 
ATOM     17  C   UNL     1       0.362  -2.678  -3.767  0.00  0.00    +0.000 A 
ATOM     18  C   UNL     1       1.571  -2.518  -4.275  0.00  0.00    +0.000 A 
ATOM     19  C   UNL     1       2.525  -2.022  -3.431  0.00  0.00    +0.000 A 
ATOM     20  C   UNL     1       2.192  -1.560  -2.181  0.00  0.00    +0.000 A 
BRANCH  15  22
ATOM     21  C   UNL     1       1.078   0.012   0.062  0.00  0.00    +0.000 C 
ATOM     22  O   UNL     1       0.604  -1.236  -0.422  0.00  0.00    +0.000 OA
ENDBRANCH  15  22
ENDBRANCH  13  18
ENDBRANCH   1  14
TORSDOF 6
