
 OpenBabel09262515163D

 37 38  0  0  0  0  0  0  0  0999 V2000
    0.9291   -0.0306   -0.0635 C   0  0  0  0  0  0  0  0  0  0  0  0
    0.4557   -1.2940    0.3792 O   0  0  0  0  0  0  0  0  0  0  0  0
    0.7988   -2.4714   -0.3366 C   0  0  0  0  0  0  0  0  0  0  0  0
   -0.2757   -3.2878   -0.6488 C   0  0  0  0  0  0  0  0  0  0  0  0
    0.0949   -4.5384   -1.1974 C   0  0  0  0  0  0  0  0  0  0  0  0
    1.2798   -4.8078   -1.7145 C   0  0  0  0  0  0  0  0  0  0  0  0
    1.5144   -6.0321   -2.5843 C   0  0  0  0  0  0  0  0  0  0  0  0
    0.4883   -6.8853   -2.8488 C   0  0  0  0  0  0  0  0  0  0  0  0
    0.7229   -8.1095   -3.7186 C   0  0  0  0  0  0  0  0  0  0  0  0
   -0.2356   -8.9066   -3.9656 O   0  0  0  0  0  0  0  0  0  0  0  0
    2.1039   -8.3804   -4.2930 C   0  0  0  0  0  0  0  0  0  0  0  0
    2.2232   -8.7460   -5.6236 C   0  0  0  0  0  0  0  0  0  0  0  0
    3.5017   -9.2447   -5.9687 C   0  0  0  0  0  0  0  0  0  0  0  0
    4.5948   -9.0646   -5.2500 C   0  0  0  0  0  0  0  0  0  0  0  0
    5.8889   -9.3022   -5.7840 O   0  0  0  0  0  0  0  0  0  0  0  0
    7.0389   -9.0961   -4.9769 C   0  0  0  0  0  0  0  0  0  0  0  0
    4.4135   -8.6370   -3.9640 C   0  0  0  0  0  0  0  0  0  0  0  0
    3.1722   -8.2567   -3.5141 C   0  0  0  0  0  0  0  0  0  0  0  0
    3.0305   -7.7267   -2.2044 O   0  0  0  0  0  0  0  0  0  0  0  0
    2.2842   -3.9264   -1.4253 C   0  0  0  0  0  0  0  0  0  0  0  0
    2.0217   -2.7440   -0.7765 C   0  0  0  0  0  0  0  0  0  0  0  0
    0.5724    0.7344    0.5941 H   0  0  0  0  0  0  0  0  0  0  0  0
    0.5724    0.1565   -1.0548 H   0  0  0  0  0  0  0  0  0  0  0  0
    1.9991   -0.0306   -0.0635 H   0  0  0  0  0  0  0  0  0  0  0  0
   -1.2936   -2.9990   -0.4896 H   0  0  0  0  0  0  0  0  0  0  0  0
   -0.6358   -5.3201   -1.1929 H   0  0  0  0  0  0  0  0  0  0  0  0
    2.4865   -6.2228   -2.9886 H   0  0  0  0  0  0  0  0  0  0  0  0
   -0.4838   -6.6946   -2.4444 H   0  0  0  0  0  0  0  0  0  0  0  0
    1.4214   -8.6593   -6.3268 H   0  0  0  0  0  0  0  0  0  0  0  0
    3.5888   -9.8067   -6.8750 H   0  0  0  0  0  0  0  0  0  0  0  0
    7.0737   -8.0748   -4.6597 H   0  0  0  0  0  0  0  0  0  0  0  0
    6.9919   -9.7344   -4.1194 H   0  0  0  0  0  0  0  0  0  0  0  0
    7.9177   -9.3238   -5.5433 H   0  0  0  0  0  0  0  0  0  0  0  0
    5.2504   -8.5979   -3.2984 H   0  0  0  0  0  0  0  0  0  0  0  0
    2.1291   -7.4485   -1.8724 H   0  0  0  0  0  0  0  0  0  0  0  0
    3.2891   -4.1607   -1.7083 H   0  0  0  0  0  0  0  0  0  0  0  0
    2.8098   -2.0364   -0.6243 H   0  0  0  0  0  0  0  0  0  0  0  0
  1  2  1  0  0  0  0
  1 22  1  0  0  0  0
  1 23  1  0  0  0  0
  1 24  1  0  0  0  0
  2  3  1  0  0  0  0
  3  4  1  0  0  0  0
  3 21  2  0  0  0  0
  4  5  2  0  0  0  0
  4 25  1  0  0  0  0
  5  6  1  0  0  0  0
  5 26  1  0  0  0  0
  6  7  1  0  0  0  0
  6 20  2  0  0  0  0
  7  8  2  0  0  0  0
  7 27  1  0  0  0  0
  8  9  1  0  0  0  0
  8 28  1  0  0  0  0
  9 10  2  0  0  0  0
  9 11  1  0  0  0  0
 11 12  1  0  0  0  0
 11 18  2  0  0  0  0
 12 13  2  0  0  0  0
 12 29  1  0  0  0  0
 13 14  1  0  0  0  0
 13 30  1  0  0  0  0
 14 15  1  0  0  0  0
 14 17  2  0  0  0  0
 15 16  1  0  0  0  0
 16 31  1  0  0  0  0
 16 32  1  0  0  0  0
 16 33  1  0  0  0  0
 17 18  1  0  0  0  0
 17 34  1  0  0  0  0
 18 19  1  0  0  0  0
 19 35  1  0  0  0  0
 20 21  1  0  0  0  0
 20 36  1  0  0  0  0
 21 37  1  0  0  0  0
M  END
