REMARK  Name = 
REMARK  8 active torsions:
REMARK  status: ('A' for Active; 'I' for Inactive)
REMARK    1  A    between atoms: C_1  and  O_2
REMARK    2  A    between atoms: O_2  and  C_3
REMARK    3  A    between atoms: C_6  and  C_7
REMARK    4  A    between atoms: C_8  and  C_9
REMARK    5  A    between atoms: C_9  and  C_11
REMARK    6  A    between atoms: C_14  and  O_15
REMARK    7  A    between atoms: O_15  and  C_16
REMARK    8  A    between atoms: C_18  and  O_19
REMARK                            x       y       z     vdW  Elec       q    Type
REMARK                         _______ _______ _______ _____ _____    ______ ____
ROOT
ATOM      1  C   UNL     1       0.723  -8.110  -3.719  0.00  0.00    +0.000 C 
ATOM      2  O   UNL     1      -0.236  -8.907  -3.966  0.00  0.00    +0.000 OA
ENDROOT
BRANCH   1   3
ATOM      3  C   UNL     1       2.104  -8.380  -4.293  0.00  0.00    +0.000 A 
ATOM      4  C   UNL     1       2.223  -8.746  -5.624  0.00  0.00    +0.000 A 
ATOM      5  C   UNL     1       3.502  -9.245  -5.969  0.00  0.00    +0.000 A 
ATOM      6  C   UNL     1       4.595  -9.065  -5.250  0.00  0.00    +0.000 A 
ATOM      7  C   UNL     1       4.413  -8.637  -3.964  0.00  0.00    +0.000 A 
ATOM      8  C   UNL     1       3.172  -8.257  -3.514  0.00  0.00    +0.000 A 
BRANCH   6   9
ATOM      9  O   UNL     1       5.889  -9.302  -5.784  0.00  0.00    +0.000 OA
ATOM     10  C   UNL     1       7.039  -9.096  -4.977  0.00  0.00    +0.000 C 
ENDBRANCH   6   9
BRANCH   8  11
ATOM     11  O   UNL     1       3.030  -7.727  -2.204  0.00  0.00    +0.000 OA
ATOM     12  H   UNL     1       2.129  -7.449  -1.872  0.00  0.00    +0.000 HD
ENDBRANCH   8  11
ENDBRANCH   1   3
BRANCH   1  14
ATOM     13  C   UNL     1       1.514  -6.032  -2.584  0.00  0.00    +0.000 C 
ATOM     14  C   UNL     1       0.488  -6.885  -2.849  0.00  0.00    +0.000 C 
BRANCH  13  18
ATOM     15  C   UNL     1       0.799  -2.471  -0.337  0.00  0.00    +0.000 A 
ATOM     16  C   UNL     1      -0.276  -3.288  -0.649  0.00  0.00    +0.000 A 
ATOM     17  C   UNL     1       0.095  -4.538  -1.197  0.00  0.00    +0.000 A 
ATOM     18  C   UNL     1       1.280  -4.808  -1.714  0.00  0.00    +0.000 A 
ATOM     19  C   UNL     1       2.284  -3.926  -1.425  0.00  0.00    +0.000 A 
ATOM     20  C   UNL     1       2.022  -2.744  -0.776  0.00  0.00    +0.000 A 
BRANCH  15  22
ATOM     21  C   UNL     1       0.929  -0.031  -0.064  0.00  0.00    +0.000 C 
ATOM     22  O   UNL     1       0.456  -1.294   0.379  0.00  0.00    +0.000 OA
ENDBRANCH  15  22
ENDBRANCH  13  18
ENDBRANCH   1  14
TORSDOF 6
