REMARK  Name = 
REMARK  7 active torsions:
REMARK  status: ('A' for Active; 'I' for Inactive)
REMARK    1  A    between atoms: C_1  and  O_2
REMARK    2  A    between atoms: O_2  and  C_3
REMARK    3  A    between atoms: C_6  and  C_7
REMARK    4  A    between atoms: C_7  and  C_9
REMARK    5  A    between atoms: C_10  and  C_11
REMARK    6  A    between atoms: C_14  and  O_15
REMARK    7  A    between atoms: C_18  and  O_19
REMARK                            x       y       z     vdW  Elec       q    Type
REMARK                         _______ _______ _______ _____ _____    ______ ____
ROOT
ATOM      1  C   UNL     1      -4.908   2.574   0.648  0.00  0.00    +0.000 C 
ATOM      2  O   UNL     1      -5.268   3.792   0.683  0.00  0.00    +0.000 OA
ENDROOT
BRANCH   1   6
ATOM      3  C   UNL     1      -0.768   1.592   0.161  0.00  0.00    +0.000 A 
ATOM      4  C   UNL     1      -1.164   2.906   0.229  0.00  0.00    +0.000 A 
ATOM      5  C   UNL     1      -2.501   3.219   0.385  0.00  0.00    +0.000 A 
ATOM      6  C   UNL     1      -3.438   2.220   0.490  0.00  0.00    +0.000 A 
ATOM      7  C   UNL     1      -3.050   0.899   0.453  0.00  0.00    +0.000 A 
ATOM      8  C   UNL     1      -1.705   0.547   0.296  0.00  0.00    +0.000 A 
BRANCH   3  10
ATOM      9  C   UNL     1       1.023   0.009  -0.097  0.00  0.00    +0.000 C 
ATOM     10  O   UNL     1       0.550   1.345  -0.018  0.00  0.00    +0.000 OA
ENDBRANCH   3  10
BRANCH   7  11
ATOM     11  O   UNL     1      -4.030  -0.121   0.575  0.00  0.00    +0.000 OA
ATOM     12  H   UNL     1      -3.757  -1.083   0.549  0.00  0.00    +0.000 HD
ENDBRANCH   7  11
ENDBRANCH   1   6
BRANCH   1  13
ATOM     13  C   UNL     1      -5.947   1.471   0.765  0.00  0.00    +0.000 C 
ATOM     14  C   UNL     1      -5.561   0.167   0.728  0.00  0.00    +0.000 C 
BRANCH  14  15
ATOM     15  C   UNL     1      -6.601  -0.936   0.845  0.00  0.00    +0.000 A 
ATOM     16  C   UNL     1      -7.772  -0.861   0.124  0.00  0.00    +0.000 A 
ATOM     17  C   UNL     1      -8.737  -1.870   0.208  0.00  0.00    +0.000 A 
ATOM     18  C   UNL     1      -8.458  -2.972   1.042  0.00  0.00    +0.000 A 
ATOM     19  C   UNL     1      -7.299  -3.022   1.779  0.00  0.00    +0.000 A 
ATOM     20  C   UNL     1      -6.367  -2.008   1.673  0.00  0.00    +0.000 A 
BRANCH  18  21
ATOM     21  O   UNL     1      -9.321  -4.006   1.167  0.00  0.00    +0.000 OA
ATOM     22  H   UNL     1     -10.176  -4.008   0.648  0.00  0.00    +0.000 HD
ENDBRANCH  18  21
ENDBRANCH  14  15
ENDBRANCH   1  13
TORSDOF 6
