REMARK  Name = 
REMARK  6 active torsions:
REMARK  status: ('A' for Active; 'I' for Inactive)
REMARK    1  A    between atoms: C_1  and  O_2
REMARK    2  A    between atoms: O_2  and  C_3
REMARK    3  A    between atoms: C_6  and  C_7
REMARK    4  A    between atoms: C_7  and  C_9
REMARK    5  A    between atoms: C_10  and  C_11
REMARK    6  A    between atoms: C_17  and  O_18
REMARK                            x       y       z     vdW  Elec       q    Type
REMARK                         _______ _______ _______ _____ _____    ______ ____
ROOT
ATOM      1  C   UNL     1       1.274  -2.456   0.162  0.00  0.00    +0.000 A 
ATOM      2  C   UNL     1       0.809  -3.723  -0.097  0.00  0.00    +0.000 A 
ATOM      3  C   UNL     1       1.557  -4.824   0.274  0.00  0.00    +0.000 A 
ATOM      4  C   UNL     1       2.759  -4.660   0.920  0.00  0.00    +0.000 A 
ATOM      5  C   UNL     1       3.221  -3.395   1.211  0.00  0.00    +0.000 A 
ATOM      6  C   UNL     1       2.490  -2.259   0.850  0.00  0.00    +0.000 A 
ENDROOT
BRANCH   1   8
ATOM      7  C   UNL     1       0.986  -0.099  -0.010  0.00  0.00    +0.000 C 
ATOM      8  O   UNL     1       0.513  -1.416  -0.247  0.00  0.00    +0.000 OA
ENDBRANCH   1   8
BRANCH   4   9
ATOM      9  C   UNL     1       3.580  -5.877   1.313  0.00  0.00    +0.000 C 
ATOM     10  O   UNL     1       3.155  -7.044   1.045  0.00  0.00    +0.000 OA
BRANCH   9  11
ATOM     11  C   UNL     1       4.910  -5.697   2.027  0.00  0.00    +0.000 C 
ATOM     12  C   UNL     1       5.365  -4.448   2.314  0.00  0.00    +0.000 C 
BRANCH  12  13
ATOM     13  C   UNL     1       6.694  -4.269   3.029  0.00  0.00    +0.000 A 
ATOM     14  C   UNL     1       6.789  -3.365   4.074  0.00  0.00    +0.000 A 
ATOM     15  C   UNL     1       8.118  -3.069   4.457  0.00  0.00    +0.000 A 
ATOM     16  C   UNL     1       9.169  -3.805   4.146  0.00  0.00    +0.000 A 
ATOM     17  C   UNL     1       8.993  -4.726   3.151  0.00  0.00    +0.000 A 
ATOM     18  C   UNL     1       7.745  -4.978   2.635  0.00  0.00    +0.000 A 
ENDBRANCH  12  13
ENDBRANCH   9  11
ENDBRANCH   4   9
BRANCH   5  19
ATOM     19  O   UNL     1       4.459  -3.243   1.889  0.00  0.00    +0.000 OA
ATOM     20  H   UNL     1       4.802  -2.329   2.105  0.00  0.00    +0.000 HD
ENDBRANCH   5  19
TORSDOF 5
