REMARK  Name = 
REMARK  9 active torsions:
REMARK  status: ('A' for Active; 'I' for Inactive)
REMARK    1  A    between atoms: C_1  and  O_2
REMARK    2  A    between atoms: O_2  and  C_3
REMARK    3  A    between atoms: C_6  and  C_7
REMARK    4  A    between atoms: C_7  and  C_9
REMARK    5  A    between atoms: C_10  and  C_11
REMARK    6  A    between atoms: C_17  and  O_18
REMARK    7  A    between atoms: O_18  and  C_19
REMARK    8  A    between atoms: C_20  and  O_21
REMARK    9  A    between atoms: O_21  and  C_22
REMARK                            x       y       z     vdW  Elec       q    Type
REMARK                         _______ _______ _______ _____ _____    ______ ____
ROOT
ATOM      1  C   UNL     1       0.821   2.350  -0.554  0.00  0.00    +0.000 A 
ATOM      2  C   UNL     1      -0.129   3.355  -0.631  0.00  0.00    +0.000 A 
ATOM      3  C   UNL     1       0.417   4.660  -0.634  0.00  0.00    +0.000 A 
ATOM      4  C   UNL     1       1.642   4.961  -0.243  0.00  0.00    +0.000 A 
ATOM      5  C   UNL     1       2.515   3.916  -0.120  0.00  0.00    +0.000 A 
ATOM      6  C   UNL     1       2.082   2.616  -0.234  0.00  0.00    +0.000 A 
ENDROOT
BRANCH   1   8
ATOM      7  C   UNL     1       0.952  -0.058  -0.066  0.00  0.00    +0.000 C 
ATOM      8  O   UNL     1       0.478   1.010  -0.874  0.00  0.00    +0.000 OA
ENDBRANCH   1   8
BRANCH   4   9
ATOM      9  C   UNL     1       2.059   6.392   0.054  0.00  0.00    +0.000 C 
ATOM     10  O   UNL     1       1.220   7.338  -0.072  0.00  0.00    +0.000 OA
BRANCH   9  11
ATOM     11  C   UNL     1       3.481   6.692   0.501  0.00  0.00    +0.000 C 
ATOM     12  C   UNL     1       4.380   5.679   0.635  0.00  0.00    +0.000 C 
BRANCH  12  13
ATOM     13  C   UNL     1       5.801   5.979   1.083  0.00  0.00    +0.000 A 
ATOM     14  C   UNL     1       6.863   5.381   0.426  0.00  0.00    +0.000 A 
ATOM     15  C   UNL     1       8.098   5.497   1.108  0.00  0.00    +0.000 A 
ATOM     16  C   UNL     1       8.344   6.369   2.069  0.00  0.00    +0.000 A 
ATOM     17  C   UNL     1       7.256   6.977   2.631  0.00  0.00    +0.000 A 
ATOM     18  C   UNL     1       5.999   6.808   2.101  0.00  0.00    +0.000 A 
ENDBRANCH  12  13
ENDBRANCH   9  11
ENDBRANCH   4   9
BRANCH   5  19
ATOM     19  O   UNL     1       3.888   4.176   0.128  0.00  0.00    +0.000 OA
ATOM     20  C   UNL     1       4.804   3.099   0.257  0.00  0.00    +0.000 C 
ENDBRANCH   5  19
BRANCH   6  21
ATOM     21  O   UNL     1       2.991   1.550  -0.007  0.00  0.00    +0.000 OA
ATOM     22  C   UNL     1       2.551   0.205  -0.122  0.00  0.00    +0.000 C 
ENDBRANCH   6  21
TORSDOF 6
