REMARK  Name = 
REMARK  10 active torsions:
REMARK  status: ('A' for Active; 'I' for Inactive)
REMARK    1  A    between atoms: C_1  and  O_2
REMARK    2  A    between atoms: O_2  and  C_3
REMARK    3  A    between atoms: C_5  and  C_6
REMARK    4  A    between atoms: C_7  and  C_8
REMARK    5  A    between atoms: C_8  and  C_10
REMARK    6  A    between atoms: C_10  and  C_11
REMARK    7  A    between atoms: C_11  and  C_12
REMARK    8  A    between atoms: C_12  and  C_13
REMARK    9  A    between atoms: C_13  and  C_14
REMARK   10  A    between atoms: C_22  and  O_23
REMARK                            x       y       z     vdW  Elec       q    Type
REMARK                         _______ _______ _______ _____ _____    ______ ____
ROOT
ATOM      1  C   UNL     1      -0.626  -2.546  -5.334  0.00  0.00    +0.000 C 
ATOM      2  C   UNL     1      -0.905  -1.377  -5.971  0.00  0.00    +0.000 C 
ENDROOT
BRANCH   1   5
ATOM      3  C   UNL     1       0.467  -1.303  -1.937  0.00  0.00    +0.000 A 
ATOM      4  C   UNL     1       0.013  -1.325  -3.234  0.00  0.00    +0.000 A 
ATOM      5  C   UNL     1      -0.142  -2.529  -3.893  0.00  0.00    +0.000 A 
ATOM      6  C   UNL     1       0.139  -3.711  -3.251  0.00  0.00    +0.000 A 
ATOM      7  C   UNL     1       0.566  -3.704  -1.942  0.00  0.00    +0.000 A 
ATOM      8  C   UNL     1       0.734  -2.503  -1.245  0.00  0.00    +0.000 A 
BRANCH   3  10
ATOM      9  C   UNL     1       1.098  -0.010  -0.014  0.00  0.00    +0.000 C 
ATOM     10  O   UNL     1       0.625  -0.095  -1.351  0.00  0.00    +0.000 OA
ENDBRANCH   3  10
BRANCH   8  11
ATOM     11  O   UNL     1       1.158  -2.492   0.110  0.00  0.00    +0.000 OA
ATOM     12  H   UNL     1       1.273  -1.623   0.592  0.00  0.00    +0.000 HD
ENDBRANCH   8  11
ENDBRANCH   1   5
BRANCH   2  13
ATOM     13  C   UNL     1      -1.388  -1.394  -7.412  0.00  0.00    +0.000 C 
ATOM     14  O   UNL     1      -1.649  -0.302  -8.008  0.00  0.00    +0.000 OA
BRANCH  13  15
ATOM     15  C   UNL     1      -1.560  -2.717  -8.141  0.00  0.00    +0.000 C 
BRANCH  15  16
ATOM     16  C   UNL     1      -0.226  -3.444  -8.192  0.00  0.00    +0.000 C 
BRANCH  16  17
ATOM     17  C   UNL     1       0.264  -3.704  -6.777  0.00  0.00    +0.000 C 
BRANCH  17  18
ATOM     18  C   UNL     1      -0.751  -4.561  -6.039  0.00  0.00    +0.000 C 
BRANCH  18  19
ATOM     19  C   UNL     1      -0.923  -5.884  -6.768  0.00  0.00    +0.000 A 
ATOM     20  C   UNL     1      -1.893  -6.085  -7.736  0.00  0.00    +0.000 A 
ATOM     21  C   UNL     1      -2.036  -7.435  -8.133  0.00  0.00    +0.000 A 
ATOM     22  C   UNL     1      -1.138  -8.379  -7.916  0.00  0.00    +0.000 A 
ATOM     23  C   UNL     1      -0.166  -8.094  -6.998  0.00  0.00    +0.000 A 
ATOM     24  C   UNL     1      -0.043  -6.832  -6.467  0.00  0.00    +0.000 A 
ENDBRANCH  18  19
ENDBRANCH  17  18
ENDBRANCH  16  17
ENDBRANCH  15  16
ENDBRANCH  13  15
ENDBRANCH   2  13
TORSDOF 9
