
 OpenBabel09262515243D

 45 46  0  0  0  0  0  0  0  0999 V2000
    1.0984   -0.0103   -0.0144 C   0  0  0  0  0  0  0  0  0  0  0  0
    0.6251   -0.0946   -1.3505 O   0  0  0  0  0  0  0  0  0  0  0  0
    0.4674   -1.3032   -1.9367 C   0  0  0  0  0  0  0  0  0  0  0  0
    0.0127   -1.3245   -3.2336 C   0  0  0  0  0  0  0  0  0  0  0  0
   -0.1423   -2.5287   -3.8928 C   0  0  0  0  0  0  0  0  0  0  0  0
   -0.6257   -2.5458   -5.3337 C   0  0  0  0  0  0  0  0  0  0  0  0
   -0.9046   -1.3770   -5.9715 C   0  0  0  0  0  0  0  0  0  0  0  0
   -1.3880   -1.3941   -7.4125 C   0  0  0  0  0  0  0  0  0  0  0  0
   -1.6486   -0.3022   -8.0084 O   0  0  0  0  0  0  0  0  0  0  0  0
   -1.5597   -2.7171   -8.1409 C   0  0  0  0  0  0  0  0  0  0  0  0
   -0.2258   -3.4440   -8.1924 C   0  0  0  0  0  0  0  0  0  0  0  0
    0.2642   -3.7045   -6.7773 C   0  0  0  0  0  0  0  0  0  0  0  0
   -0.7514   -4.5612   -6.0391 C   0  0  0  0  0  0  0  0  0  0  0  0
   -0.9231   -5.8843   -6.7675 C   0  0  0  0  0  0  0  0  0  0  0  0
   -1.8932   -6.0848   -7.7356 C   0  0  0  0  0  0  0  0  0  0  0  0
   -2.0363   -7.4353   -8.1327 C   0  0  0  0  0  0  0  0  0  0  0  0
   -1.1380   -8.3788   -7.9163 C   0  0  0  0  0  0  0  0  0  0  0  0
   -0.1657   -8.0937   -6.9983 C   0  0  0  0  0  0  0  0  0  0  0  0
   -0.0433   -6.8324   -6.4672 C   0  0  0  0  0  0  0  0  0  0  0  0
    0.1385   -3.7108   -3.2514 C   0  0  0  0  0  0  0  0  0  0  0  0
    0.5664   -3.7036   -1.9420 C   0  0  0  0  0  0  0  0  0  0  0  0
    0.7344   -2.5026   -1.2448 C   0  0  0  0  0  0  0  0  0  0  0  0
    1.1584   -2.4917    0.1104 O   0  0  0  0  0  0  0  0  0  0  0  0
    0.7418   -0.8504    0.5440 H   0  0  0  0  0  0  0  0  0  0  0  0
    0.7418    0.8934    0.4340 H   0  0  0  0  0  0  0  0  0  0  0  0
    2.1684   -0.0103   -0.0144 H   0  0  0  0  0  0  0  0  0  0  0  0
   -0.2215   -0.4077   -3.7331 H   0  0  0  0  0  0  0  0  0  0  0  0
   -0.7466   -3.4771   -5.8465 H   0  0  0  0  0  0  0  0  0  0  0  0
   -0.7838   -0.4456   -5.4588 H   0  0  0  0  0  0  0  0  0  0  0  0
   -2.2747   -3.3202   -7.6212 H   0  0  0  0  0  0  0  0  0  0  0  0
   -1.9046   -2.5337   -9.1370 H   0  0  0  0  0  0  0  0  0  0  0  0
   -0.3466   -4.3753   -8.7051 H   0  0  0  0  0  0  0  0  0  0  0  0
    0.4892   -2.8409   -8.7121 H   0  0  0  0  0  0  0  0  0  0  0  0
    1.2033   -4.2162   -6.8136 H   0  0  0  0  0  0  0  0  0  0  0  0
    0.3851   -2.7732   -6.2646 H   0  0  0  0  0  0  0  0  0  0  0  0
   -0.4065   -4.7446   -5.0430 H   0  0  0  0  0  0  0  0  0  0  0  0
   -1.6904   -4.0495   -6.0029 H   0  0  0  0  0  0  0  0  0  0  0  0
   -2.4810   -5.2905   -8.1460 H   0  0  0  0  0  0  0  0  0  0  0  0
   -2.9349   -7.7114   -8.6437 H   0  0  0  0  0  0  0  0  0  0  0  0
   -1.1693   -9.3159   -8.4317 H   0  0  0  0  0  0  0  0  0  0  0  0
    0.5097   -8.8639   -6.6890 H   0  0  0  0  0  0  0  0  0  0  0  0
    0.7683   -6.6122   -5.8056 H   0  0  0  0  0  0  0  0  0  0  0  0
    0.0246   -4.6395   -3.7705 H   0  0  0  0  0  0  0  0  0  0  0  0
    0.7735   -4.6312   -1.4506 H   0  0  0  0  0  0  0  0  0  0  0  0
    1.2726   -1.6225    0.5915 H   0  0  0  0  0  0  0  0  0  0  0  0
  1  2  1  0  0  0  0
  1 24  1  0  0  0  0
  1 25  1  0  0  0  0
  1 26  1  0  0  0  0
  2  3  1  0  0  0  0
  3  4  1  0  0  0  0
  3 22  2  0  0  0  0
  4  5  2  0  0  0  0
  4 27  1  0  0  0  0
  5  6  1  0  0  0  0
  5 20  1  0  0  0  0
  6  7  2  0  0  0  0
  6 28  1  0  0  0  0
  7  8  1  0  0  0  0
  7 29  1  0  0  0  0
  8  9  2  0  0  0  0
  8 10  1  0  0  0  0
 10 11  1  0  0  0  0
 10 30  1  0  0  0  0
 10 31  1  0  0  0  0
 11 12  1  0  0  0  0
 11 32  1  0  0  0  0
 11 33  1  0  0  0  0
 12 13  1  0  0  0  0
 12 34  1  0  0  0  0
 12 35  1  0  0  0  0
 13 14  1  0  0  0  0
 13 36  1  0  0  0  0
 13 37  1  0  0  0  0
 14 15  1  0  0  0  0
 14 19  2  0  0  0  0
 15 16  2  0  0  0  0
 15 38  1  0  0  0  0
 16 17  1  0  0  0  0
 16 39  1  0  0  0  0
 17 18  2  0  0  0  0
 17 40  1  0  0  0  0
 18 19  1  0  0  0  0
 18 41  1  0  0  0  0
 19 42  1  0  0  0  0
 20 21  2  0  0  0  0
 20 43  1  0  0  0  0
 21 22  1  0  0  0  0
 21 44  1  0  0  0  0
 22 23  1  0  0  0  0
 23 45  1  0  0  0  0
M  END
