
 OpenBabel09262515243D

 35 37  0  0  0  0  0  0  0  0999 V2000
    0.9818    0.0807   -0.0561 C   0  0  0  0  0  0  0  0  0  0  0  0
    0.5084   -1.2210   -0.3688 O   0  0  0  0  0  0  0  0  0  0  0  0
    0.8515   -1.8225   -1.6085 C   0  0  0  0  0  0  0  0  0  0  0  0
   -0.1954   -2.3301   -2.3602 C   0  0  0  0  0  0  0  0  0  0  0  0
    0.2178   -3.0493   -3.5065 C   0  0  0  0  0  0  0  0  0  0  0  0
    1.4195   -2.9690   -4.0481 C   0  0  0  0  0  0  0  0  0  0  0  0
    1.7028   -3.4864   -5.4490 C   0  0  0  0  0  0  0  0  0  0  0  0
    3.0283   -3.3791   -6.0019 C   0  0  0  0  0  0  0  0  0  0  0  0
    4.0854   -2.7815   -5.2275 C   0  0  0  0  0  0  0  0  0  0  0  0
    5.2551   -2.6868   -5.7155 O   0  0  0  0  0  0  0  0  0  0  0  0
    3.8021   -2.2641   -3.8267 C   0  0  0  0  0  0  0  0  0  0  0  0
    4.3921   -1.0847   -3.4031 C   0  0  0  0  0  0  0  0  0  0  0  0
    4.4102   -0.9254   -1.9972 C   0  0  0  0  0  0  0  0  0  0  0  0
    3.6491   -1.6026   -1.1569 C   0  0  0  0  0  0  0  0  0  0  0  0
    3.0391   -2.7205   -1.6545 C   0  0  0  0  0  0  0  0  0  0  0  0
    3.0868   -3.0136   -2.9961 C   0  0  0  0  0  0  0  0  0  0  0  0
    0.7153   -4.0446   -6.1724 O   0  0  0  0  0  0  0  0  0  0  0  0
    2.3952   -2.3954   -3.2810 C   0  0  0  0  0  0  0  0  0  0  0  0
    2.0897   -1.7880   -2.0870 C   0  0  0  0  0  0  0  0  0  0  0  0
    3.1072   -1.1174   -1.3581 O   0  0  0  0  0  0  0  0  0  0  0  0
    2.7984   -0.4875   -0.1235 C   0  0  0  0  0  0  0  0  0  0  0  0
    0.6251    0.3672    0.9112 H   0  0  0  0  0  0  0  0  0  0  0  0
    0.6251    0.7752   -0.7878 H   0  0  0  0  0  0  0  0  0  0  0  0
    2.0518    0.0807   -0.0561 H   0  0  0  0  0  0  0  0  0  0  0  0
   -1.2234   -2.1909   -2.0977 H   0  0  0  0  0  0  0  0  0  0  0  0
   -0.4928   -3.7037   -3.9665 H   0  0  0  0  0  0  0  0  0  0  0  0
    3.2277   -3.7433   -6.9881 H   0  0  0  0  0  0  0  0  0  0  0  0
    4.7973   -0.3598   -4.0777 H   0  0  0  0  0  0  0  0  0  0  0  0
    5.0876   -0.2063   -1.5864 H   0  0  0  0  0  0  0  0  0  0  0  0
    3.5168   -1.2930   -0.1412 H   0  0  0  0  0  0  0  0  0  0  0  0
    2.5171   -3.3766   -0.9897 H   0  0  0  0  0  0  0  0  0  0  0  0
    3.4114   -2.4199   -3.6153 H   0  0  0  0  0  0  0  0  0  0  0  0
    2.0556    0.2659   -0.2833 H   0  0  0  0  0  0  0  0  0  0  0  0
    2.4248   -1.2163    0.5651 H   0  0  0  0  0  0  0  0  0  0  0  0
    3.6822   -0.0375    0.2782 H   0  0  0  0  0  0  0  0  0  0  0  0
  1  2  1  0  0  0  0
  1 22  1  0  0  0  0
  1 23  1  0  0  0  0
  1 24  1  0  0  0  0
  2  3  1  0  0  0  0
  3  4  1  0  0  0  0
  3 19  2  0  0  0  0
  4  5  2  0  0  0  0
  4 25  1  0  0  0  0
  5  6  1  0  0  0  0
  5 26  1  0  0  0  0
  6  7  1  0  0  0  0
  6 18  2  0  0  0  0
  7  8  2  0  0  0  0
  7 17  1  0  0  0  0
  8  9  1  0  0  0  0
  8 27  1  0  0  0  0
  9 10  2  0  0  0  0
  9 11  1  0  0  0  0
 11 12  1  0  0  0  0
 11 16  2  0  0  0  0
 12 13  2  0  0  0  0
 12 28  1  0  0  0  0
 13 14  1  0  0  0  0
 13 29  1  0  0  0  0
 14 15  2  0  0  0  0
 14 30  1  0  0  0  0
 15 16  1  0  0  0  0
 15 31  1  0  0  0  0
 16 17  1  0  0  0  0
 18 19  1  0  0  0  0
 18 32  1  0  0  0  0
 19 20  1  0  0  0  0
 20 21  1  0  0  0  0
 21 33  1  0  0  0  0
 21 34  1  0  0  0  0
 21 35  1  0  0  0  0
M  END
