REMARK  Name = 
REMARK  5 active torsions:
REMARK  status: ('A' for Active; 'I' for Inactive)
REMARK    1  A    between atoms: C_1  and  O_2
REMARK    2  A    between atoms: O_2  and  C_3
REMARK    3  A    between atoms: C_6  and  C_7
REMARK    4  A    between atoms: C_19  and  O_20
REMARK    5  A    between atoms: O_20  and  C_21
REMARK                            x       y       z     vdW  Elec       q    Type
REMARK                         _______ _______ _______ _____ _____    ______ ____
ROOT
ATOM      1  C   UNL     1       1.703  -3.486  -5.449  0.00  0.00    +0.000 A 
ATOM      2  C   UNL     1       3.028  -3.379  -6.002  0.00  0.00    +0.000 A 
ATOM      3  C   UNL     1       4.085  -2.781  -5.228  0.00  0.00    +0.000 A 
ATOM      4  O   UNL     1       5.255  -2.687  -5.715  0.00  0.00    +0.000 OA
ATOM      5  C   UNL     1       3.802  -2.264  -3.827  0.00  0.00    +0.000 A 
ATOM      6  C   UNL     1       4.392  -1.085  -3.403  0.00  0.00    +0.000 A 
ATOM      7  C   UNL     1       4.410  -0.925  -1.997  0.00  0.00    +0.000 A 
ATOM      8  C   UNL     1       3.649  -1.603  -1.157  0.00  0.00    +0.000 A 
ATOM      9  C   UNL     1       3.039  -2.720  -1.655  0.00  0.00    +0.000 A 
ATOM     10  C   UNL     1       3.087  -3.014  -2.996  0.00  0.00    +0.000 A 
ATOM     11  O   UNL     1       0.715  -4.045  -6.172  0.00  0.00    +0.000 OA
ENDROOT
BRANCH   1  15
ATOM     12  C   UNL     1       0.852  -1.823  -1.609  0.00  0.00    +0.000 A 
ATOM     13  C   UNL     1      -0.195  -2.330  -2.360  0.00  0.00    +0.000 A 
ATOM     14  C   UNL     1       0.218  -3.049  -3.506  0.00  0.00    +0.000 A 
ATOM     15  C   UNL     1       1.419  -2.969  -4.048  0.00  0.00    +0.000 A 
ATOM     16  C   UNL     1       2.395  -2.395  -3.281  0.00  0.00    +0.000 A 
ATOM     17  C   UNL     1       2.090  -1.788  -2.087  0.00  0.00    +0.000 A 
BRANCH  12  19
ATOM     18  C   UNL     1       0.982   0.081  -0.056  0.00  0.00    +0.000 C 
ATOM     19  O   UNL     1       0.508  -1.221  -0.369  0.00  0.00    +0.000 OA
ENDBRANCH  12  19
BRANCH  17  20
ATOM     20  O   UNL     1       3.107  -1.117  -1.358  0.00  0.00    +0.000 OA
ATOM     21  C   UNL     1       2.798  -0.487  -0.123  0.00  0.00    +0.000 C 
ENDBRANCH  17  20
ENDBRANCH   1  15
TORSDOF 3
