REMARK  Name = 
REMARK  5 active torsions:
REMARK  status: ('A' for Active; 'I' for Inactive)
REMARK    1  A    between atoms: C_1  and  O_2
REMARK    2  A    between atoms: O_2  and  C_3
REMARK    3  A    between atoms: C_5  and  O_6
REMARK    4  A    between atoms: O_6  and  C_7
REMARK    5  A    between atoms: C_9  and  C_10
REMARK                            x       y       z     vdW  Elec       q    Type
REMARK                         _______ _______ _______ _____ _____    ______ ____
ROOT
ATOM      1  C   UNL     1       4.079  -2.746   3.404  0.00  0.00    +0.000 A 
ATOM      2  C   UNL     1       4.994  -2.283   2.393  0.00  0.00    +0.000 A 
ATOM      3  C   UNL     1       4.520  -1.445   1.321  0.00  0.00    +0.000 A 
ATOM      4  O   UNL     1       5.327  -1.037   0.429  0.00  0.00    +0.000 OA
ATOM      5  C   UNL     1       3.053  -1.051   1.257  0.00  0.00    +0.000 A 
ATOM      6  C   UNL     1       2.381  -1.123   0.049  0.00  0.00    +0.000 A 
ATOM      7  C   UNL     1       1.129  -0.463   0.049  0.00  0.00    +0.000 A 
ATOM      8  C   UNL     1       0.463  -0.120   1.137  0.00  0.00    +0.000 A 
ATOM      9  C   UNL     1       1.166  -0.135   2.309  0.00  0.00    +0.000 A 
ATOM     10  C   UNL     1       2.441  -0.643   2.363  0.00  0.00    +0.000 A 
ATOM     11  O   UNL     1       4.522  -3.528   4.405  0.00  0.00    +0.000 OA
ENDROOT
BRANCH   1  16
ATOM     12  C   UNL     1       0.914  -1.121   2.284  0.00  0.00    +0.000 A 
ATOM     13  C   UNL     1      -0.024  -1.583   3.192  0.00  0.00    +0.000 A 
ATOM     14  C   UNL     1       0.533  -2.288   4.285  0.00  0.00    +0.000 A 
ATOM     15  C   UNL     1       1.752  -2.796   4.305  0.00  0.00    +0.000 A 
ATOM     16  C   UNL     1       2.612  -2.351   3.340  0.00  0.00    +0.000 A 
ATOM     17  C   UNL     1       2.170  -1.552   2.313  0.00  0.00    +0.000 A 
BRANCH  12  19
ATOM     18  C   UNL     1       1.045  -0.030   0.084  0.00  0.00    +0.000 C 
ATOM     19  O   UNL     1       0.572  -0.046   1.423  0.00  0.00    +0.000 OA
ENDBRANCH  12  19
BRANCH  14  20
ATOM     20  O   UNL     1      -0.274  -2.462   5.440  0.00  0.00    +0.000 OA
ATOM     21  C   UNL     1       0.237  -3.163   6.564  0.00  0.00    +0.000 C 
ENDBRANCH  14  20
ENDBRANCH   1  16
TORSDOF 3
