
 OpenBabel09262515243D

 35 37  0  0  0  0  0  0  0  0999 V2000
    1.0448   -0.0296    0.0844 C   0  0  0  0  0  0  0  0  0  0  0  0
    0.5715   -0.0458    1.4231 O   0  0  0  0  0  0  0  0  0  0  0  0
    0.9145   -1.1213    2.2845 C   0  0  0  0  0  0  0  0  0  0  0  0
   -0.0243   -1.5826    3.1924 C   0  0  0  0  0  0  0  0  0  0  0  0
    0.5330   -2.2883    4.2848 C   0  0  0  0  0  0  0  0  0  0  0  0
   -0.2743   -2.4623    5.4399 O   0  0  0  0  0  0  0  0  0  0  0  0
    0.2368   -3.1629    6.5644 C   0  0  0  0  0  0  0  0  0  0  0  0
    1.7518   -2.7963    4.3048 C   0  0  0  0  0  0  0  0  0  0  0  0
    2.6122   -2.3511    3.3399 C   0  0  0  0  0  0  0  0  0  0  0  0
    4.0787   -2.7458    3.4039 C   0  0  0  0  0  0  0  0  0  0  0  0
    4.9939   -2.2826    2.3930 C   0  0  0  0  0  0  0  0  0  0  0  0
    4.5196   -1.4454    1.3214 C   0  0  0  0  0  0  0  0  0  0  0  0
    5.3272   -1.0366    0.4292 O   0  0  0  0  0  0  0  0  0  0  0  0
    3.0531   -1.0507    1.2573 C   0  0  0  0  0  0  0  0  0  0  0  0
    2.3806   -1.1226    0.0485 C   0  0  0  0  0  0  0  0  0  0  0  0
    1.1290   -0.4627    0.0487 C   0  0  0  0  0  0  0  0  0  0  0  0
    0.4631   -0.1201    1.1365 C   0  0  0  0  0  0  0  0  0  0  0  0
    1.1656   -0.1347    2.3094 C   0  0  0  0  0  0  0  0  0  0  0  0
    2.4409   -0.6432    2.3630 C   0  0  0  0  0  0  0  0  0  0  0  0
    4.5218   -3.5278    4.4051 O   0  0  0  0  0  0  0  0  0  0  0  0
    2.1702   -1.5520    2.3132 C   0  0  0  0  0  0  0  0  0  0  0  0
    0.6881    0.8501   -0.4094 H   0  0  0  0  0  0  0  0  0  0  0  0
    0.6881   -0.8970   -0.4306 H   0  0  0  0  0  0  0  0  0  0  0  0
    2.1148   -0.0296    0.0844 H   0  0  0  0  0  0  0  0  0  0  0  0
   -1.0757   -1.4201    3.0780 H   0  0  0  0  0  0  0  0  0  0  0  0
    0.4941   -4.1607    6.2761 H   0  0  0  0  0  0  0  0  0  0  0  0
    1.1082   -2.6618    6.9310 H   0  0  0  0  0  0  0  0  0  0  0  0
   -0.5067   -3.1943    7.3332 H   0  0  0  0  0  0  0  0  0  0  0  0
    2.0500   -3.5176    5.0367 H   0  0  0  0  0  0  0  0  0  0  0  0
    6.0262   -2.5604    2.4381 H   0  0  0  0  0  0  0  0  0  0  0  0
    2.7721   -1.6309   -0.8077 H   0  0  0  0  0  0  0  0  0  0  0  0
    0.6915   -0.2247   -0.8983 H   0  0  0  0  0  0  0  0  0  0  0  0
   -0.5705    0.1542    1.1018 H   0  0  0  0  0  0  0  0  0  0  0  0
    0.7157    0.2554    3.1984 H   0  0  0  0  0  0  0  0  0  0  0  0
    2.8440   -1.2744    1.5298 H   0  0  0  0  0  0  0  0  0  0  0  0
  1  2  1  0  0  0  0
  1 22  1  0  0  0  0
  1 23  1  0  0  0  0
  1 24  1  0  0  0  0
  2  3  1  0  0  0  0
  3  4  1  0  0  0  0
  3 21  2  0  0  0  0
  4  5  2  0  0  0  0
  4 25  1  0  0  0  0
  5  6  1  0  0  0  0
  5  8  1  0  0  0  0
  6  7  1  0  0  0  0
  7 26  1  0  0  0  0
  7 27  1  0  0  0  0
  7 28  1  0  0  0  0
  8  9  2  0  0  0  0
  8 29  1  0  0  0  0
  9 10  1  0  0  0  0
  9 21  1  0  0  0  0
 10 11  2  0  0  0  0
 10 20  1  0  0  0  0
 11 12  1  0  0  0  0
 11 30  1  0  0  0  0
 12 13  2  0  0  0  0
 12 14  1  0  0  0  0
 14 15  1  0  0  0  0
 14 19  2  0  0  0  0
 15 16  2  0  0  0  0
 15 31  1  0  0  0  0
 16 17  1  0  0  0  0
 16 32  1  0  0  0  0
 17 18  2  0  0  0  0
 17 33  1  0  0  0  0
 18 19  1  0  0  0  0
 18 34  1  0  0  0  0
 19 20  1  0  0  0  0
 21 35  1  0  0  0  0
M  END
