REMARK  Name = 
REMARK  3 active torsions:
REMARK  status: ('A' for Active; 'I' for Inactive)
REMARK    1  A    between atoms: C_1  and  O_2
REMARK    2  A    between atoms: O_2  and  C_3
REMARK    3  A    between atoms: C_6  and  C_7
REMARK                            x       y       z     vdW  Elec       q    Type
REMARK                         _______ _______ _______ _____ _____    ______ ____
ROOT
ATOM      1  C   UNL     1       1.937   0.020  -6.393  0.00  0.00    +0.000 A 
ATOM      2  C   UNL     1       3.281   0.422  -6.719  0.00  0.00    +0.000 A 
ATOM      3  C   UNL     1       4.270   0.541  -5.678  0.00  0.00    +0.000 A 
ATOM      4  O   UNL     1       5.455   0.896  -5.965  0.00  0.00    +0.000 OA
ATOM      5  C   UNL     1       3.894   0.242  -4.236  0.00  0.00    +0.000 A 
ATOM      6  C   UNL     1       4.361   1.063  -3.222  0.00  0.00    +0.000 A 
ATOM      7  C   UNL     1       4.261   0.493  -1.931  0.00  0.00    +0.000 A 
ATOM      8  C   UNL     1       3.492  -0.535  -1.623  0.00  0.00    +0.000 A 
ATOM      9  C   UNL     1       3.007  -1.267  -2.672  0.00  0.00    +0.000 A 
ATOM     10  C   UNL     1       3.177  -0.843  -3.968  0.00  0.00    +0.000 A 
ATOM     11  O   UNL     1       1.014  -0.091  -7.365  0.00  0.00    +0.000 OA
ENDROOT
BRANCH   1  15
ATOM     12  C   UNL     1       0.822  -0.593  -2.316  0.00  0.00    +0.000 A 
ATOM     13  C   UNL     1      -0.161  -0.647  -3.289  0.00  0.00    +0.000 A 
ATOM     14  C   UNL     1       0.341  -0.651  -4.612  0.00  0.00    +0.000 A 
ATOM     15  C   UNL     1       1.562  -0.280  -4.950  0.00  0.00    +0.000 A 
ATOM     16  C   UNL     1       2.471  -0.178  -3.934  0.00  0.00    +0.000 A 
ATOM     17  C   UNL     1       2.079  -0.293  -2.622  0.00  0.00    +0.000 A 
BRANCH  12  19
ATOM     18  C   UNL     1       0.953   0.073   0.049  0.00  0.00    +0.000 C 
ATOM     19  O   UNL     1       0.479  -0.812  -0.955  0.00  0.00    +0.000 OA
ENDBRANCH  12  19
ENDBRANCH   1  15
TORSDOF 2
