REMARK  Name = 
REMARK  3 active torsions:
REMARK  status: ('A' for Active; 'I' for Inactive)
REMARK    1  A    between atoms: C_1  and  O_2
REMARK    2  A    between atoms: O_2  and  C_3
REMARK    3  A    between atoms: C_12  and  C_14
REMARK                            x       y       z     vdW  Elec       q    Type
REMARK                         _______ _______ _______ _____ _____    ______ ____
ROOT
ATOM      1  C   UNL     1       0.808   0.371  -2.369  0.00  0.00    +0.000 A 
ATOM      2  C   UNL     1      -0.147   0.501  -3.354  0.00  0.00    +0.000 A 
ATOM      3  C   UNL     1       0.187   1.074  -4.573  0.00  0.00    +0.000 A 
ATOM      4  C   UNL     1       1.471   1.519  -4.822  0.00  0.00    +0.000 A 
ATOM      5  C   UNL     1       2.414   1.371  -3.817  0.00  0.00    +0.000 A 
ATOM      6  C   UNL     1       2.118   0.814  -2.590  0.00  0.00    +0.000 A 
ATOM      7  C   UNL     1       3.162   0.681  -1.542  0.00  0.00    +0.000 A 
ATOM      8  O   UNL     1       2.860   0.176  -0.459  0.00  0.00    +0.000 OA
ATOM      9  C   UNL     1       4.484   1.145  -1.912  0.00  0.00    +0.000 A 
ATOM     10  C   UNL     1       4.686   1.653  -3.215  0.00  0.00    +0.000 A 
ATOM     11  O   UNL     1       3.693   1.806  -4.115  0.00  0.00    +0.000 OA
ENDROOT
BRANCH  10  12
ATOM     12  C   UNL     1       6.096   2.048  -3.623  0.00  0.00    +0.000 A 
ATOM     13  C   UNL     1       6.360   3.356  -3.994  0.00  0.00    +0.000 A 
ATOM     14  C   UNL     1       7.617   3.532  -4.619  0.00  0.00    +0.000 A 
ATOM     15  C   UNL     1       8.614   2.668  -4.554  0.00  0.00    +0.000 A 
ATOM     16  C   UNL     1       8.301   1.411  -4.115  0.00  0.00    +0.000 A 
ATOM     17  C   UNL     1       7.054   1.128  -3.612  0.00  0.00    +0.000 A 
ENDBRANCH  10  12
BRANCH   1  19
ATOM     18  C   UNL     1       0.939   0.044   0.065  0.00  0.00    +0.000 C 
ATOM     19  O   UNL     1       0.465  -0.371  -1.208  0.00  0.00    +0.000 OA
ENDBRANCH   1  19
TORSDOF 2
