REMARK  Name = 
REMARK  5 active torsions:
REMARK  status: ('A' for Active; 'I' for Inactive)
REMARK    1  A    between atoms: C_1  and  O_2
REMARK    2  A    between atoms: O_2  and  C_3
REMARK    3  A    between atoms: C_6  and  O_7
REMARK    4  A    between atoms: O_7  and  C_8
REMARK    5  A    between atoms: C_9  and  C_10
REMARK                            x       y       z     vdW  Elec       q    Type
REMARK                         _______ _______ _______ _____ _____    ______ ____
ROOT
ATOM      1  C   UNL     1       3.987   3.089   2.963  0.00  0.00    +0.000 A 
ATOM      2  C   UNL     1       4.896   2.128   2.395  0.00  0.00    +0.000 A 
ATOM      3  C   UNL     1       4.414   1.148   1.456  0.00  0.00    +0.000 A 
ATOM      4  O   UNL     1       5.216   0.300   0.954  0.00  0.00    +0.000 OA
ATOM      5  C   UNL     1       2.945   1.129   1.065  0.00  0.00    +0.000 A 
ATOM      6  C   UNL     1       2.271  -0.080   1.018  0.00  0.00    +0.000 A 
ATOM      7  C   UNL     1       1.015  -0.011   0.369  0.00  0.00    +0.000 A 
ATOM      8  C   UNL     1       0.350   1.107   0.142  0.00  0.00    +0.000 A 
ATOM      9  C   UNL     1       1.055   2.271   0.271  0.00  0.00    +0.000 A 
ATOM     10  C   UNL     1       2.333   2.271   0.775  0.00  0.00    +0.000 A 
ATOM     11  O   UNL     1       4.438   4.005   3.840  0.00  0.00    +0.000 OA
ENDROOT
BRANCH   1  16
ATOM     12  C   UNL     1       0.811   2.150   1.251  0.00  0.00    +0.000 A 
ATOM     13  C   UNL     1      -0.123   3.009   1.808  0.00  0.00    +0.000 A 
ATOM     14  C   UNL     1       0.442   4.022   2.618  0.00  0.00    +0.000 A 
ATOM     15  C   UNL     1       1.664   3.987   3.118  0.00  0.00    +0.000 A 
ATOM     16  C   UNL     1       2.518   3.070   2.572  0.00  0.00    +0.000 A 
ATOM     17  C   UNL     1       2.069   2.131   1.676  0.00  0.00    +0.000 A 
BRANCH  12  19
ATOM     18  C   UNL     1       0.941   0.065  -0.047  0.00  0.00    +0.000 C 
ATOM     19  O   UNL     1       0.468   1.396   0.098  0.00  0.00    +0.000 OA
ENDBRANCH  12  19
BRANCH  15  20
ATOM     20  O   UNL     1       2.068   4.855   4.167  0.00  0.00    +0.000 OA
ATOM     21  C   UNL     1       3.392   4.785   4.677  0.00  0.00    +0.000 C 
ENDBRANCH  15  20
ENDBRANCH   1  16
TORSDOF 3
