
 OpenBabel09262515243D

 35 37  0  0  0  0  0  0  0  0999 V2000
    0.9410    0.0653   -0.0474 C   0  0  0  0  0  0  0  0  0  0  0  0
    0.4676    1.3962    0.0978 O   0  0  0  0  0  0  0  0  0  0  0  0
    0.8107    2.1498    1.2514 C   0  0  0  0  0  0  0  0  0  0  0  0
   -0.1226    3.0089    1.8078 C   0  0  0  0  0  0  0  0  0  0  0  0
    0.4423    4.0224    2.6176 C   0  0  0  0  0  0  0  0  0  0  0  0
    1.6639    3.9872    3.1182 C   0  0  0  0  0  0  0  0  0  0  0  0
    2.0680    4.8552    4.1668 O   0  0  0  0  0  0  0  0  0  0  0  0
    3.3915    4.7846    4.6766 C   0  0  0  0  0  0  0  0  0  0  0  0
    2.5185    3.0700    2.5724 C   0  0  0  0  0  0  0  0  0  0  0  0
    3.9873    3.0894    2.9633 C   0  0  0  0  0  0  0  0  0  0  0  0
    4.8965    2.1280    2.3947 C   0  0  0  0  0  0  0  0  0  0  0  0
    4.4140    1.1483    1.4557 C   0  0  0  0  0  0  0  0  0  0  0  0
    5.2164    0.2999    0.9540 O   0  0  0  0  0  0  0  0  0  0  0  0
    2.9453    1.1289    1.0649 C   0  0  0  0  0  0  0  0  0  0  0  0
    2.2705   -0.0798    1.0180 C   0  0  0  0  0  0  0  0  0  0  0  0
    1.0152   -0.0108    0.3689 C   0  0  0  0  0  0  0  0  0  0  0  0
    0.3498    1.1071    0.1419 C   0  0  0  0  0  0  0  0  0  0  0  0
    1.0550    2.2714    0.2711 C   0  0  0  0  0  0  0  0  0  0  0  0
    2.3333    2.2711    0.7749 C   0  0  0  0  0  0  0  0  0  0  0  0
    4.4380    4.0046    3.8404 O   0  0  0  0  0  0  0  0  0  0  0  0
    2.0688    2.1310    1.6758 C   0  0  0  0  0  0  0  0  0  0  0  0
    0.5843   -0.3413   -0.9707 H   0  0  0  0  0  0  0  0  0  0  0  0
    0.5843   -0.5309    0.7663 H   0  0  0  0  0  0  0  0  0  0  0  0
    2.0110    0.0653   -0.0474 H   0  0  0  0  0  0  0  0  0  0  0  0
   -1.1752    2.9147    1.6405 H   0  0  0  0  0  0  0  0  0  0  0  0
   -0.1623    4.8768    2.8398 H   0  0  0  0  0  0  0  0  0  0  0  0
    3.5711    3.8051    5.0681 H   0  0  0  0  0  0  0  0  0  0  0  0
    4.0880    4.9876    3.8901 H   0  0  0  0  0  0  0  0  0  0  0  0
    3.5126    5.5078    5.4558 H   0  0  0  0  0  0  0  0  0  0  0  0
    5.9304    2.1416    2.6698 H   0  0  0  0  0  0  0  0  0  0  0  0
    2.6630   -0.9838    1.4349 H   0  0  0  0  0  0  0  0  0  0  0  0
    0.5743   -0.9282    0.0389 H   0  0  0  0  0  0  0  0  0  0  0  0
   -0.6854    1.1021   -0.1284 H   0  0  0  0  0  0  0  0  0  0  0  0
    0.6049    3.1960   -0.0245 H   0  0  0  0  0  0  0  0  0  0  0  0
    2.7384    1.3779    1.3162 H   0  0  0  0  0  0  0  0  0  0  0  0
  1  2  1  0  0  0  0
  1 22  1  0  0  0  0
  1 23  1  0  0  0  0
  1 24  1  0  0  0  0
  2  3  1  0  0  0  0
  3  4  1  0  0  0  0
  3 21  2  0  0  0  0
  4  5  2  0  0  0  0
  4 25  1  0  0  0  0
  5  6  1  0  0  0  0
  5 26  1  0  0  0  0
  6  7  1  0  0  0  0
  6  9  2  0  0  0  0
  7  8  1  0  0  0  0
  8 27  1  0  0  0  0
  8 28  1  0  0  0  0
  8 29  1  0  0  0  0
  9 10  1  0  0  0  0
  9 21  1  0  0  0  0
 10 11  2  0  0  0  0
 10 20  1  0  0  0  0
 11 12  1  0  0  0  0
 11 30  1  0  0  0  0
 12 13  2  0  0  0  0
 12 14  1  0  0  0  0
 14 15  1  0  0  0  0
 14 19  2  0  0  0  0
 15 16  2  0  0  0  0
 15 31  1  0  0  0  0
 16 17  1  0  0  0  0
 16 32  1  0  0  0  0
 17 18  2  0  0  0  0
 17 33  1  0  0  0  0
 18 19  1  0  0  0  0
 18 34  1  0  0  0  0
 19 20  1  0  0  0  0
 21 35  1  0  0  0  0
M  END
