REMARK  Name = 
REMARK  6 active torsions:
REMARK  status: ('A' for Active; 'I' for Inactive)
REMARK    1  A    between atoms: C_1  and  O_2
REMARK    2  A    between atoms: O_2  and  C_3
REMARK    3  A    between atoms: C_6  and  C_7
REMARK    4  A    between atoms: C_8  and  C_9
REMARK    5  A    between atoms: C_11  and  O_12
REMARK    6  A    between atoms: C_14  and  O_15
REMARK                            x       y       z     vdW  Elec       q    Type
REMARK                         _______ _______ _______ _____ _____    ______ ____
ROOT
ATOM      1  C   UNL     1       2.159   6.368   1.237  0.00  0.00    +0.000 C 
ATOM      2  C   UNL     1       1.278   7.405   1.257  0.00  0.00    +0.000 C 
ENDROOT
BRANCH   1   6
ATOM      3  C   UNL     1       0.867   2.498  -0.025  0.00  0.00    +0.000 A 
ATOM      4  C   UNL     1      -0.066   3.519   0.050  0.00  0.00    +0.000 A 
ATOM      5  C   UNL     1       0.500   4.798   0.262  0.00  0.00    +0.000 A 
ATOM      6  C   UNL     1       1.724   5.011   0.710  0.00  0.00    +0.000 A 
ATOM      7  C   UNL     1       2.579   3.945   0.672  0.00  0.00    +0.000 A 
ATOM      8  C   UNL     1       2.128   2.688   0.347  0.00  0.00    +0.000 A 
BRANCH   3  10
ATOM      9  C   UNL     1       0.998   0.043  -0.090  0.00  0.00    +0.000 C 
ATOM     10  O   UNL     1       0.524   1.264  -0.639  0.00  0.00    +0.000 OA
ENDBRANCH   3  10
ENDBRANCH   1   6
BRANCH   2  11
ATOM     11  C   UNL     1      -0.141   7.205   0.752  0.00  0.00    +0.000 A 
ATOM     12  C   UNL     1      -0.776   8.183   0.004  0.00  0.00    +0.000 A 
ATOM     13  C   UNL     1      -2.183   8.047  -0.042  0.00  0.00    +0.000 A 
ATOM     14  C   UNL     1      -2.839   6.941   0.261  0.00  0.00    +0.000 A 
ATOM     15  C   UNL     1      -2.137   5.985   0.941  0.00  0.00    +0.000 A 
ATOM     16  C   UNL     1      -0.783   6.109   1.139  0.00  0.00    +0.000 A 
BRANCH  13  17
ATOM     17  O   UNL     1      -2.944   9.178  -0.441  0.00  0.00    +0.000 OA
ATOM     18  H   UNL     1      -3.941   9.119  -0.485  0.00  0.00    +0.000 HD
ENDBRANCH  13  17
BRANCH  15  19
ATOM     19  O   UNL     1      -2.817   4.847   1.449  0.00  0.00    +0.000 OA
ATOM     20  H   UNL     1      -2.311   4.143   1.948  0.00  0.00    +0.000 HD
ENDBRANCH  15  19
ENDBRANCH   2  11
TORSDOF 5
