REMARK  Name = 
REMARK  5 active torsions:
REMARK  status: ('A' for Active; 'I' for Inactive)
REMARK    1  A    between atoms: C_1  and  O_2
REMARK    2  A    between atoms: O_2  and  C_3
REMARK    3  A    between atoms: C_5  and  O_6
REMARK    4  A    between atoms: C_8  and  C_9
REMARK    5  A    between atoms: C_10  and  C_11
REMARK                            x       y       z     vdW  Elec       q    Type
REMARK                         _______ _______ _______ _____ _____    ______ ____
ROOT
ATOM      1  C   UNL     1      -0.020  -0.427   2.195  0.00  0.00    +0.000 A 
ATOM      2  C   UNL     1      -0.363   0.049   3.438  0.00  0.00    +0.000 A 
ATOM      3  C   UNL     1      -0.863  -0.813   4.395  0.00  0.00    +0.000 A 
ATOM      4  C   UNL     1      -1.003  -2.151   4.117  0.00  0.00    +0.000 A 
ATOM      5  C   UNL     1      -0.635  -2.644   2.884  0.00  0.00    +0.000 A 
ATOM      6  C   UNL     1      -0.125  -1.800   1.892  0.00  0.00    +0.000 A 
ENDROOT
BRANCH   1   8
ATOM      7  C   UNL     1       0.912   0.044   0.019  0.00  0.00    +0.000 C 
ATOM      8  O   UNL     1       0.439   0.467   1.290  0.00  0.00    +0.000 OA
ENDBRANCH   1   8
BRANCH   3   9
ATOM      9  O   UNL     1      -1.234  -0.314   5.671  0.00  0.00    +0.000 OA
ATOM     10  H   UNL     1      -1.597  -0.935   6.365  0.00  0.00    +0.000 HD
ENDBRANCH   3   9
BRANCH   5  11
ATOM     11  C   UNL     1      -0.784  -4.130   2.598  0.00  0.00    +0.000 C 
ATOM     12  C   UNL     1      -1.279  -4.960   3.555  0.00  0.00    +0.000 C 
BRANCH  12  13
ATOM     13  C   UNL     1      -1.429  -6.446   3.269  0.00  0.00    +0.000 A 
ATOM     14  C   UNL     1      -2.586  -7.126   3.611  0.00  0.00    +0.000 A 
ATOM     15  C   UNL     1      -2.466  -8.534   3.538  0.00  0.00    +0.000 A 
ATOM     16  C   UNL     1      -1.515  -9.172   2.881  0.00  0.00    +0.000 A 
ATOM     17  C   UNL     1      -0.428  -8.429   2.511  0.00  0.00    +0.000 A 
ATOM     18  C   UNL     1      -0.418  -7.064   2.670  0.00  0.00    +0.000 A 
ENDBRANCH  12  13
ENDBRANCH   5  11
TORSDOF 4
