
 OpenBabel09262515243D

 31 32  0  0  0  0  0  0  0  0999 V2000
    0.9124    0.0442    0.0194 C   0  0  0  0  0  0  0  0  0  0  0  0
    0.4391    0.4671    1.2896 O   0  0  0  0  0  0  0  0  0  0  0  0
   -0.0202   -0.4266    2.1947 C   0  0  0  0  0  0  0  0  0  0  0  0
   -0.3631    0.0490    3.4379 C   0  0  0  0  0  0  0  0  0  0  0  0
   -0.8633   -0.8128    4.3947 C   0  0  0  0  0  0  0  0  0  0  0  0
   -1.2344   -0.3135    5.6712 O   0  0  0  0  0  0  0  0  0  0  0  0
   -1.0031   -2.1510    4.1166 C   0  0  0  0  0  0  0  0  0  0  0  0
   -0.6347   -2.6444    2.8843 C   0  0  0  0  0  0  0  0  0  0  0  0
   -0.7845   -4.1297    2.5980 C   0  0  0  0  0  0  0  0  0  0  0  0
   -1.2790   -4.9604    3.5550 C   0  0  0  0  0  0  0  0  0  0  0  0
   -1.4287   -6.4457    3.2687 C   0  0  0  0  0  0  0  0  0  0  0  0
   -2.5859   -7.1257    3.6107 C   0  0  0  0  0  0  0  0  0  0  0  0
   -2.4661   -8.5337    3.5385 C   0  0  0  0  0  0  0  0  0  0  0  0
   -1.5149   -9.1717    2.8809 C   0  0  0  0  0  0  0  0  0  0  0  0
   -0.4282   -8.4290    2.5110 C   0  0  0  0  0  0  0  0  0  0  0  0
   -0.4177   -7.0642    2.6699 C   0  0  0  0  0  0  0  0  0  0  0  0
   -0.1251   -1.8000    1.8924 C   0  0  0  0  0  0  0  0  0  0  0  0
    0.5557    0.7138   -0.7352 H   0  0  0  0  0  0  0  0  0  0  0  0
    0.5558   -0.9440   -0.1832 H   0  0  0  0  0  0  0  0  0  0  0  0
    1.9824    0.0442    0.0194 H   0  0  0  0  0  0  0  0  0  0  0  0
   -0.2426    1.0877    3.6647 H   0  0  0  0  0  0  0  0  0  0  0  0
   -1.5967   -0.9355    6.3654 H   0  0  0  0  0  0  0  0  0  0  0  0
   -1.3992   -2.8117    4.8592 H   0  0  0  0  0  0  0  0  0  0  0  0
   -0.5009   -4.5218    1.6436 H   0  0  0  0  0  0  0  0  0  0  0  0
   -1.5625   -4.5683    4.5094 H   0  0  0  0  0  0  0  0  0  0  0  0
   -3.4886   -6.6312    3.9030 H   0  0  0  0  0  0  0  0  0  0  0  0
   -3.1968   -9.1225    4.0524 H   0  0  0  0  0  0  0  0  0  0  0  0
   -1.5907  -10.2137    2.6500 H   0  0  0  0  0  0  0  0  0  0  0  0
    0.4265   -8.9176    2.0918 H   0  0  0  0  0  0  0  0  0  0  0  0
    0.4126   -6.4947    2.3078 H   0  0  0  0  0  0  0  0  0  0  0  0
    0.1743   -2.1823    0.9389 H   0  0  0  0  0  0  0  0  0  0  0  0
  1  2  1  0  0  0  0
  1 18  1  0  0  0  0
  1 19  1  0  0  0  0
  1 20  1  0  0  0  0
  2  3  1  0  0  0  0
  3  4  1  0  0  0  0
  3 17  2  0  0  0  0
  4  5  2  0  0  0  0
  4 21  1  0  0  0  0
  5  6  1  0  0  0  0
  5  7  1  0  0  0  0
  6 22  1  0  0  0  0
  7  8  2  0  0  0  0
  7 23  1  0  0  0  0
  8  9  1  0  0  0  0
  8 17  1  0  0  0  0
  9 10  2  0  0  0  0
  9 24  1  0  0  0  0
 10 11  1  0  0  0  0
 10 25  1  0  0  0  0
 11 12  1  0  0  0  0
 11 16  2  0  0  0  0
 12 13  2  0  0  0  0
 12 26  1  0  0  0  0
 13 14  1  0  0  0  0
 13 27  1  0  0  0  0
 14 15  2  0  0  0  0
 14 28  1  0  0  0  0
 15 16  1  0  0  0  0
 15 29  1  0  0  0  0
 16 30  1  0  0  0  0
 17 31  1  0  0  0  0
M  END
