
 OpenBabel09262515243D

 34 35  0  0  0  0  0  0  0  0999 V2000
    0.9013   -0.0109   -0.0115 C   0  0  0  0  0  0  0  0  0  0  0  0
    0.4279    1.0621    0.7892 O   0  0  0  0  0  0  0  0  0  0  0  0
    0.7710    1.1259    2.1656 C   0  0  0  0  0  0  0  0  0  0  0  0
   -0.2080    1.4314    3.0967 C   0  0  0  0  0  0  0  0  0  0  0  0
    0.2997    1.7575    4.3765 C   0  0  0  0  0  0  0  0  0  0  0  0
   -0.6212    2.4932    5.3362 C   0  0  0  0  0  0  0  0  0  0  0  0
   -1.8860    2.8154    4.9528 C   0  0  0  0  0  0  0  0  0  0  0  0
   -2.8070    3.5511    5.9125 C   0  0  0  0  0  0  0  0  0  0  0  0
   -4.1342    3.1570    5.9537 C   0  0  0  0  0  0  0  0  0  0  0  0
   -4.9966    4.1085    6.5478 C   0  0  0  0  0  0  0  0  0  0  0  0
   -4.5965    5.1042    7.3176 C   0  0  0  0  0  0  0  0  0  0  0  0
   -3.2622    5.4005    7.2840 C   0  0  0  0  0  0  0  0  0  0  0  0
   -2.3752    4.5915    6.6157 C   0  0  0  0  0  0  0  0  0  0  0  0
    1.5181    1.4672    4.7951 C   0  0  0  0  0  0  0  0  0  0  0  0
    2.4214    1.1064    3.8342 C   0  0  0  0  0  0  0  0  0  0  0  0
    3.7884    0.9464    4.1837 O   0  0  0  0  0  0  0  0  0  0  0  0
    4.7352    0.5719    3.1938 C   0  0  0  0  0  0  0  0  0  0  0  0
    2.0255    0.8964    2.5354 C   0  0  0  0  0  0  0  0  0  0  0  0
    0.5446    0.1073   -1.0133 H   0  0  0  0  0  0  0  0  0  0  0  0
    0.5446   -0.9377    0.3871 H   0  0  0  0  0  0  0  0  0  0  0  0
    1.9713   -0.0109   -0.0115 H   0  0  0  0  0  0  0  0  0  0  0  0
   -1.2534    1.4217    2.8687 H   0  0  0  0  0  0  0  0  0  0  0  0
   -0.2746    2.7577    6.3133 H   0  0  0  0  0  0  0  0  0  0  0  0
   -2.2326    2.5509    3.9756 H   0  0  0  0  0  0  0  0  0  0  0  0
   -4.4763    2.2182    5.5709 H   0  0  0  0  0  0  0  0  0  0  0  0
   -6.0459    4.0147    6.3605 H   0  0  0  0  0  0  0  0  0  0  0  0
   -5.2798    5.6497    7.9344 H   0  0  0  0  0  0  0  0  0  0  0  0
   -2.9035    6.2751    7.7854 H   0  0  0  0  0  0  0  0  0  0  0  0
   -1.3271    4.8016    6.6624 H   0  0  0  0  0  0  0  0  0  0  0  0
    1.7840    1.5118    5.8306 H   0  0  0  0  0  0  0  0  0  0  0  0
    4.4617   -0.3758    2.7791 H   0  0  0  0  0  0  0  0  0  0  0  0
    4.7512    1.3092    2.4185 H   0  0  0  0  0  0  0  0  0  0  0  0
    5.7060    0.5002    3.6379 H   0  0  0  0  0  0  0  0  0  0  0  0
    2.7346    0.5449    1.8152 H   0  0  0  0  0  0  0  0  0  0  0  0
  1  2  1  0  0  0  0
  1 19  1  0  0  0  0
  1 20  1  0  0  0  0
  1 21  1  0  0  0  0
  2  3  1  0  0  0  0
  3  4  1  0  0  0  0
  3 18  2  0  0  0  0
  4  5  2  0  0  0  0
  4 22  1  0  0  0  0
  5  6  1  0  0  0  0
  5 14  1  0  0  0  0
  6  7  2  0  0  0  0
  6 23  1  0  0  0  0
  7  8  1  0  0  0  0
  7 24  1  0  0  0  0
  8  9  1  0  0  0  0
  8 13  2  0  0  0  0
  9 10  2  0  0  0  0
  9 25  1  0  0  0  0
 10 11  1  0  0  0  0
 10 26  1  0  0  0  0
 11 12  2  0  0  0  0
 11 27  1  0  0  0  0
 12 13  1  0  0  0  0
 12 28  1  0  0  0  0
 13 29  1  0  0  0  0
 14 15  2  0  0  0  0
 14 30  1  0  0  0  0
 15 16  1  0  0  0  0
 15 18  1  0  0  0  0
 16 17  1  0  0  0  0
 17 31  1  0  0  0  0
 17 32  1  0  0  0  0
 17 33  1  0  0  0  0
 18 34  1  0  0  0  0
M  END
