REMARK  Name = 
REMARK  6 active torsions:
REMARK  status: ('A' for Active; 'I' for Inactive)
REMARK    1  A    between atoms: C_1  and  O_2
REMARK    2  A    between atoms: O_2  and  C_3
REMARK    3  A    between atoms: C_5  and  C_6
REMARK    4  A    between atoms: C_7  and  C_8
REMARK    5  A    between atoms: C_15  and  O_16
REMARK    6  A    between atoms: O_16  and  C_17
REMARK                            x       y       z     vdW  Elec       q    Type
REMARK                         _______ _______ _______ _____ _____    ______ ____
ROOT
ATOM      1  C   UNL     1       0.771   1.126   2.166  0.00  0.00    +0.000 A 
ATOM      2  C   UNL     1      -0.208   1.431   3.097  0.00  0.00    +0.000 A 
ATOM      3  C   UNL     1       0.300   1.758   4.377  0.00  0.00    +0.000 A 
ATOM      4  C   UNL     1       1.518   1.467   4.795  0.00  0.00    +0.000 A 
ATOM      5  C   UNL     1       2.421   1.106   3.834  0.00  0.00    +0.000 A 
ATOM      6  C   UNL     1       2.026   0.896   2.535  0.00  0.00    +0.000 A 
ENDROOT
BRANCH   1   8
ATOM      7  C   UNL     1       0.901  -0.011  -0.011  0.00  0.00    +0.000 C 
ATOM      8  O   UNL     1       0.428   1.062   0.789  0.00  0.00    +0.000 OA
ENDBRANCH   1   8
BRANCH   3   9
ATOM      9  C   UNL     1      -0.621   2.493   5.336  0.00  0.00    +0.000 C 
ATOM     10  C   UNL     1      -1.886   2.815   4.953  0.00  0.00    +0.000 C 
BRANCH  10  11
ATOM     11  C   UNL     1      -2.807   3.551   5.912  0.00  0.00    +0.000 A 
ATOM     12  C   UNL     1      -4.134   3.157   5.954  0.00  0.00    +0.000 A 
ATOM     13  C   UNL     1      -4.997   4.109   6.548  0.00  0.00    +0.000 A 
ATOM     14  C   UNL     1      -4.596   5.104   7.318  0.00  0.00    +0.000 A 
ATOM     15  C   UNL     1      -3.262   5.401   7.284  0.00  0.00    +0.000 A 
ATOM     16  C   UNL     1      -2.375   4.591   6.616  0.00  0.00    +0.000 A 
ENDBRANCH  10  11
ENDBRANCH   3   9
BRANCH   5  17
ATOM     17  O   UNL     1       3.788   0.946   4.184  0.00  0.00    +0.000 OA
ATOM     18  C   UNL     1       4.735   0.572   3.194  0.00  0.00    +0.000 C 
ENDBRANCH   5  17
TORSDOF 4
