REMARK  Name = 
REMARK  10 active torsions:
REMARK  status: ('A' for Active; 'I' for Inactive)
REMARK    1  A    between atoms: C_2  and  C_3
REMARK    2  A    between atoms: C_2  and  C_14
REMARK    3  A    between atoms: C_3  and  C_4
REMARK    4  A    between atoms: C_4  and  C_5
REMARK    5  A    between atoms: C_5  and  C_6
REMARK    6  A    between atoms: C_6  and  C_7
REMARK    7  A    between atoms: C_10  and  O_11
REMARK    8  A    between atoms: C_14  and  C_15
REMARK    9  A    between atoms: C_15  and  C_16
REMARK   10  A    between atoms: C_19  and  O_20
REMARK                            x       y       z     vdW  Elec       q    Type
REMARK                         _______ _______ _______ _____ _____    ______ ____
ROOT
ATOM      1  O   UNL     1       0.943  -0.057   0.059  0.00  0.00    +0.000 OA
ATOM      2  C   UNL     1       2.214  -0.057   0.059  0.00  0.00    +0.000 C 
ENDROOT
BRANCH   2   3
ATOM      3  C   UNL     1       2.974   1.109  -0.551  0.00  0.00    +0.000 C 
BRANCH   3   4
ATOM      4  C   UNL     1       3.848   1.756   0.512  0.00  0.00    +0.000 C 
BRANCH   4   5
ATOM      5  C   UNL     1       4.835   0.732   1.047  0.00  0.00    +0.000 C 
BRANCH   5   6
ATOM      6  C   UNL     1       5.709   0.228  -0.090  0.00  0.00    +0.000 C 
BRANCH   6   7
ATOM      7  C   UNL     1       6.469   1.395  -0.700  0.00  0.00    +0.000 A 
ATOM      8  C   UNL     1       7.519   1.235  -1.578  0.00  0.00    +0.000 A 
ATOM      9  C   UNL     1       8.124   2.339  -2.187  0.00  0.00    +0.000 A 
ATOM     10  C   UNL     1       7.610   3.616  -1.882  0.00  0.00    +0.000 A 
ATOM     11  C   UNL     1       6.582   3.765  -0.982  0.00  0.00    +0.000 A 
ATOM     12  C   UNL     1       6.006   2.653  -0.399  0.00  0.00    +0.000 A 
BRANCH  10  13
ATOM     13  O   UNL     1       8.117   4.739  -2.441  0.00  0.00    +0.000 OA
ATOM     14  H   UNL     1       8.865   4.674  -3.101  0.00  0.00    +0.000 HD
ENDBRANCH  10  13
ENDBRANCH   6   7
ENDBRANCH   5   6
ENDBRANCH   4   5
ENDBRANCH   3   4
ENDBRANCH   2   3
BRANCH   2  15
ATOM     15  C   UNL     1       2.974  -1.224   0.669  0.00  0.00    +0.000 C 
BRANCH  15  16
ATOM     16  C   UNL     1       2.607  -1.355   2.138  0.00  0.00    +0.000 C 
BRANCH  16  17
ATOM     17  C   UNL     1       1.112  -1.601   2.267  0.00  0.00    +0.000 A 
ATOM     18  C   UNL     1       0.243  -0.535   2.336  0.00  0.00    +0.000 A 
ATOM     19  C   UNL     1      -1.137  -0.735   2.443  0.00  0.00    +0.000 A 
ATOM     20  C   UNL     1      -1.605  -2.065   2.460  0.00  0.00    +0.000 A 
ATOM     21  C   UNL     1      -0.726  -3.121   2.420  0.00  0.00    +0.000 A 
ATOM     22  C   UNL     1       0.632  -2.888   2.314  0.00  0.00    +0.000 A 
BRANCH  20  23
ATOM     23  O   UNL     1      -2.924  -2.353   2.537  0.00  0.00    +0.000 OA
ATOM     24  H   UNL     1      -3.596  -1.614   2.568  0.00  0.00    +0.000 HD
ENDBRANCH  20  23
ENDBRANCH  16  17
ENDBRANCH  15  16
ENDBRANCH   2  15
TORSDOF 10
