REMARK  Name = 
REMARK  7 active torsions:
REMARK  status: ('A' for Active; 'I' for Inactive)
REMARK    1  A    between atoms: C_1  and  O_2
REMARK    2  A    between atoms: O_2  and  C_3
REMARK    3  A    between atoms: C_5  and  C_6
REMARK    4  A    between atoms: C_7  and  C_8
REMARK    5  A    between atoms: C_11  and  O_12
REMARK    6  A    between atoms: C_16  and  O_17
REMARK    7  A    between atoms: O_17  and  C_18
REMARK                            x       y       z     vdW  Elec       q    Type
REMARK                         _______ _______ _______ _____ _____    ______ ____
ROOT
ATOM      1  C   UNL     1       0.939  -1.410  -2.098  0.00  0.00    +0.000 A 
ATOM      2  C   UNL     1      -0.057  -1.765  -2.993  0.00  0.00    +0.000 A 
ATOM      3  C   UNL     1       0.428  -2.184  -4.254  0.00  0.00    +0.000 A 
ATOM      4  C   UNL     1       1.644  -1.940  -4.707  0.00  0.00    +0.000 A 
ATOM      5  C   UNL     1       2.566  -1.527  -3.786  0.00  0.00    +0.000 A 
ATOM      6  C   UNL     1       2.191  -1.224  -2.499  0.00  0.00    +0.000 A 
ENDROOT
BRANCH   1   8
ATOM      7  C   UNL     1       1.069  -0.048  -0.054  0.00  0.00    +0.000 C 
ATOM      8  O   UNL     1       0.596  -1.200  -0.736  0.00  0.00    +0.000 OA
ENDBRANCH   1   8
BRANCH   3   9
ATOM      9  C   UNL     1      -0.516  -2.971  -5.149  0.00  0.00    +0.000 C 
ATOM     10  C   UNL     1      -1.779  -3.249  -4.728  0.00  0.00    +0.000 C 
BRANCH  10  11
ATOM     11  C   UNL     1      -2.723  -4.035  -5.622  0.00  0.00    +0.000 A 
ATOM     12  C   UNL     1      -4.017  -3.610  -5.877  0.00  0.00    +0.000 A 
ATOM     13  C   UNL     1      -4.809  -4.563  -6.561  0.00  0.00    +0.000 A 
ATOM     14  C   UNL     1      -4.328  -5.597  -7.226  0.00  0.00    +0.000 A 
ATOM     15  C   UNL     1      -3.023  -5.925  -6.981  0.00  0.00    +0.000 A 
ATOM     16  C   UNL     1      -2.223  -5.112  -6.216  0.00  0.00    +0.000 A 
BRANCH  14  17
ATOM     17  O   UNL     1      -5.124  -6.330  -8.146  0.00  0.00    +0.000 OA
ATOM     18  H   UNL     1      -4.732  -7.109  -8.636  0.00  0.00    +0.000 HD
ENDBRANCH  14  17
ENDBRANCH  10  11
ENDBRANCH   3   9
BRANCH   5  19
ATOM     19  O   UNL     1       3.929  -1.410  -4.163  0.00  0.00    +0.000 OA
ATOM     20  C   UNL     1       4.895  -0.982  -3.214  0.00  0.00    +0.000 C 
ENDBRANCH   5  19
TORSDOF 5
