REMARK  Name = 
REMARK  7 active torsions:
REMARK  status: ('A' for Active; 'I' for Inactive)
REMARK    1  A    between atoms: C_1  and  O_2
REMARK    2  A    between atoms: O_2  and  C_3
REMARK    3  A    between atoms: C_5  and  C_6
REMARK    4  A    between atoms: C_7  and  C_8
REMARK    5  A    between atoms: C_8  and  C_10
REMARK    6  A    between atoms: C_13  and  O_14
REMARK    7  A    between atoms: C_19  and  O_20
REMARK                            x       y       z     vdW  Elec       q    Type
REMARK                         _______ _______ _______ _____ _____    ______ ____
ROOT
ATOM      1  C   UNL     1      -1.780   3.725   3.945  0.00  0.00    +0.000 C 
ATOM      2  C   UNL     1      -1.210   4.859   3.454  0.00  0.00    +0.000 C 
ENDROOT
BRANCH   1   5
ATOM      3  C   UNL     1      -0.331   1.103   1.641  0.00  0.00    +0.000 A 
ATOM      4  C   UNL     1      -0.603   2.314   2.232  0.00  0.00    +0.000 A 
ATOM      5  C   UNL     1      -1.466   2.381   3.308  0.00  0.00    +0.000 A 
ATOM      6  C   UNL     1      -2.043   1.237   3.806  0.00  0.00    +0.000 A 
ATOM      7  C   UNL     1      -1.755   0.014   3.241  0.00  0.00    +0.000 A 
ATOM      8  C   UNL     1      -0.885  -0.089   2.150  0.00  0.00    +0.000 A 
BRANCH   3  10
ATOM      9  C   UNL     1       0.974  -0.080  -0.055  0.00  0.00    +0.000 C 
ATOM     10  O   UNL     1       0.501   1.102   0.575  0.00  0.00    +0.000 OA
ENDBRANCH   3  10
BRANCH   8  11
ATOM     11  O   UNL     1      -0.572  -1.350   1.577  0.00  0.00    +0.000 OA
ATOM     12  H   UNL     1       0.052  -1.403   0.797  0.00  0.00    +0.000 HD
ENDBRANCH   8  11
ENDBRANCH   1   5
BRANCH   2  13
ATOM     13  C   UNL     1      -1.524   6.204   4.091  0.00  0.00    +0.000 C 
ATOM     14  O   UNL     1      -0.992   7.263   3.633  0.00  0.00    +0.000 OA
BRANCH  13  15
ATOM     15  C   UNL     1      -2.474   6.281   5.275  0.00  0.00    +0.000 A 
ATOM     16  C   UNL     1      -2.355   5.380   6.310  0.00  0.00    +0.000 A 
ATOM     17  C   UNL     1      -3.210   5.435   7.416  0.00  0.00    +0.000 A 
ATOM     18  C   UNL     1      -4.183   6.455   7.439  0.00  0.00    +0.000 A 
ATOM     19  C   UNL     1      -4.311   7.330   6.386  0.00  0.00    +0.000 A 
ATOM     20  C   UNL     1      -3.449   7.247   5.309  0.00  0.00    +0.000 A 
BRANCH  18  21
ATOM     21  O   UNL     1      -5.037   6.600   8.477  0.00  0.00    +0.000 OA
ATOM     22  H   UNL     1      -4.978   5.984   9.263  0.00  0.00    +0.000 HD
ENDBRANCH  18  21
ENDBRANCH  13  15
ENDBRANCH   2  13
TORSDOF 6
