REMARK  Name = 
REMARK  11 active torsions:
REMARK  status: ('A' for Active; 'I' for Inactive)
REMARK    1  A    between atoms: C_1  and  O_2
REMARK    2  A    between atoms: O_2  and  C_3
REMARK    3  A    between atoms: C_6  and  C_7
REMARK    4  A    between atoms: C_8  and  C_9
REMARK    5  A    between atoms: C_9  and  C_11
REMARK    6  A    between atoms: C_13  and  O_14
REMARK    7  A    between atoms: O_14  and  C_15
REMARK    8  A    between atoms: C_16  and  O_17
REMARK    9  A    between atoms: O_17  and  C_18
REMARK   10  A    between atoms: C_19  and  O_20
REMARK   11  A    between atoms: O_20  and  C_21
REMARK                            x       y       z     vdW  Elec       q    Type
REMARK                         _______ _______ _______ _____ _____    ______ ____
ROOT
ATOM      1  C   UNL     1       1.743  -5.055   7.320  0.00  0.00    +0.000 C 
ATOM      2  O   UNL     1       0.916  -5.432   8.208  0.00  0.00    +0.000 OA
ENDROOT
BRANCH   1   3
ATOM      3  C   UNL     1       3.157  -5.613   7.313  0.00  0.00    +0.000 A 
ATOM      4  C   UNL     1       3.355  -6.973   7.489  0.00  0.00    +0.000 A 
ATOM      5  C   UNL     1       4.699  -7.327   7.754  0.00  0.00    +0.000 A 
ATOM      6  C   UNL     1       5.740  -6.550   7.513  0.00  0.00    +0.000 A 
ATOM      7  C   UNL     1       5.472  -5.230   7.280  0.00  0.00    +0.000 A 
ATOM      8  C   UNL     1       4.180  -4.785   7.138  0.00  0.00    +0.000 A 
BRANCH   5   9
ATOM      9  O   UNL     1       4.946  -8.606   8.320  0.00  0.00    +0.000 OA
ATOM     10  C   UNL     1       6.276  -9.011   8.606  0.00  0.00    +0.000 C 
ENDBRANCH   5   9
BRANCH   6  11
ATOM     11  O   UNL     1       7.065  -7.060   7.497  0.00  0.00    +0.000 OA
ATOM     12  C   UNL     1       8.157  -6.191   7.233  0.00  0.00    +0.000 C 
ENDBRANCH   6  11
BRANCH   7  13
ATOM     13  O   UNL     1       6.546  -4.305   7.183  0.00  0.00    +0.000 OA
ATOM     14  C   UNL     1       6.280  -2.932   6.941  0.00  0.00    +0.000 C 
ENDBRANCH   7  13
ENDBRANCH   1   3
BRANCH   1  16
ATOM     15  C   UNL     1       2.204  -3.643   5.315  0.00  0.00    +0.000 C 
ATOM     16  C   UNL     1       1.319  -4.046   6.265  0.00  0.00    +0.000 C 
BRANCH  15  20
ATOM     17  C   UNL     1       0.941  -0.990   2.215  0.00  0.00    +0.000 A 
ATOM     18  C   UNL     1       0.003  -1.438   3.130  0.00  0.00    +0.000 A 
ATOM     19  C   UNL     1       0.561  -2.127   4.233  0.00  0.00    +0.000 A 
ATOM     20  C   UNL     1       1.780  -2.634   4.260  0.00  0.00    +0.000 A 
ATOM     21  C   UNL     1       2.640  -2.203   3.288  0.00  0.00    +0.000 A 
ATOM     22  C   UNL     1       2.197  -1.420   2.249  0.00  0.00    +0.000 A 
BRANCH  17  24
ATOM     23  C   UNL     1       1.072   0.070  -0.001  0.00  0.00    +0.000 C 
ATOM     24  O   UNL     1       0.598   0.073   1.338  0.00  0.00    +0.000 OA
ENDBRANCH  17  24
ENDBRANCH  15  20
ENDBRANCH   1  16
TORSDOF 7
