
 OpenBabel09262515243D

 34 35  0  0  0  0  0  0  0  0999 V2000
    0.9295    0.0452   -0.0547 C   0  0  0  0  0  0  0  0  0  0  0  0
    0.4562    1.3825    0.0093 O   0  0  0  0  0  0  0  0  0  0  0  0
    0.7992    2.2049    1.1149 C   0  0  0  0  0  0  0  0  0  0  0  0
   -0.1331    3.0993    1.6142 C   0  0  0  0  0  0  0  0  0  0  0  0
    0.4328    4.1626    2.3567 C   0  0  0  0  0  0  0  0  0  0  0  0
    1.6542    4.1585    2.8588 C   0  0  0  0  0  0  0  0  0  0  0  0
    2.0877    5.1579    3.9188 C   0  0  0  0  0  0  0  0  0  0  0  0
    1.2079    6.0897    4.3754 C   0  0  0  0  0  0  0  0  0  0  0  0
    1.6414    7.0891    5.4355 C   0  0  0  0  0  0  0  0  0  0  0  0
    0.8195    7.9596    5.8620 O   0  0  0  0  0  0  0  0  0  0  0  0
    3.0578    7.0475    5.9853 C   0  0  0  0  0  0  0  0  0  0  0  0
    3.2596    7.1518    7.3516 C   0  0  0  0  0  0  0  0  0  0  0  0
    4.6053    7.3941    7.7155 C   0  0  0  0  0  0  0  0  0  0  0  0
    5.6434    7.1896    6.9252 C   0  0  0  0  0  0  0  0  0  0  0  0
    6.9699    7.1421    7.4296 O   0  0  0  0  0  0  0  0  0  0  0  0
    5.3721    7.0259    5.5951 C   0  0  0  0  0  0  0  0  0  0  0  0
    4.0784    6.9120    5.1466 C   0  0  0  0  0  0  0  0  0  0  0  0
    3.8304    6.6471    3.7737 O   0  0  0  0  0  0  0  0  0  0  0  0
    2.5079    3.2069    2.3739 C   0  0  0  0  0  0  0  0  0  0  0  0
    2.0572    2.2123    1.5399 C   0  0  0  0  0  0  0  0  0  0  0  0
    0.5729   -0.4169   -0.9514 H   0  0  0  0  0  0  0  0  0  0  0  0
    0.5729   -0.5004    0.7939 H   0  0  0  0  0  0  0  0  0  0  0  0
    1.9995    0.0452   -0.0547 H   0  0  0  0  0  0  0  0  0  0  0  0
   -1.1858    2.9956    1.4530 H   0  0  0  0  0  0  0  0  0  0  0  0
   -0.1709    5.0302    2.5229 H   0  0  0  0  0  0  0  0  0  0  0  0
    3.0848    5.1286    4.3059 H   0  0  0  0  0  0  0  0  0  0  0  0
    0.2108    6.1190    3.9884 H   0  0  0  0  0  0  0  0  0  0  0  0
    2.4696    7.0576    8.0671 H   0  0  0  0  0  0  0  0  0  0  0  0
    4.7951    7.7692    8.6995 H   0  0  0  0  0  0  0  0  0  0  0  0
    7.7364    6.9855    6.8067 H   0  0  0  0  0  0  0  0  0  0  0  0
    6.1789    6.9859    4.8934 H   0  0  0  0  0  0  0  0  0  0  0  0
    2.8906    6.5633    3.4425 H   0  0  0  0  0  0  0  0  0  0  0  0
    3.5418    3.2372    2.6478 H   0  0  0  0  0  0  0  0  0  0  0  0
    2.7260    1.4367    1.2301 H   0  0  0  0  0  0  0  0  0  0  0  0
  1  2  1  0  0  0  0
  1 21  1  0  0  0  0
  1 22  1  0  0  0  0
  1 23  1  0  0  0  0
  2  3  1  0  0  0  0
  3  4  1  0  0  0  0
  3 20  2  0  0  0  0
  4  5  2  0  0  0  0
  4 24  1  0  0  0  0
  5  6  1  0  0  0  0
  5 25  1  0  0  0  0
  6  7  1  0  0  0  0
  6 19  2  0  0  0  0
  7  8  2  0  0  0  0
  7 26  1  0  0  0  0
  8  9  1  0  0  0  0
  8 27  1  0  0  0  0
  9 10  2  0  0  0  0
  9 11  1  0  0  0  0
 11 12  1  0  0  0  0
 11 17  2  0  0  0  0
 12 13  2  0  0  0  0
 12 28  1  0  0  0  0
 13 14  1  0  0  0  0
 13 29  1  0  0  0  0
 14 15  1  0  0  0  0
 14 16  2  0  0  0  0
 15 30  1  0  0  0  0
 16 17  1  0  0  0  0
 16 31  1  0  0  0  0
 17 18  1  0  0  0  0
 18 32  1  0  0  0  0
 19 20  1  0  0  0  0
 19 33  1  0  0  0  0
 20 34  1  0  0  0  0
M  END
