REMARK  Name = 
REMARK  7 active torsions:
REMARK  status: ('A' for Active; 'I' for Inactive)
REMARK    1  A    between atoms: C_1  and  O_2
REMARK    2  A    between atoms: O_2  and  C_3
REMARK    3  A    between atoms: C_6  and  C_7
REMARK    4  A    between atoms: C_8  and  C_9
REMARK    5  A    between atoms: C_9  and  C_11
REMARK    6  A    between atoms: C_14  and  O_15
REMARK    7  A    between atoms: C_17  and  O_18
REMARK                            x       y       z     vdW  Elec       q    Type
REMARK                         _______ _______ _______ _____ _____    ______ ____
ROOT
ATOM      1  C   UNL     1       1.641   7.089   5.436  0.00  0.00    +0.000 C 
ATOM      2  O   UNL     1       0.820   7.960   5.862  0.00  0.00    +0.000 OA
ENDROOT
BRANCH   1   3
ATOM      3  C   UNL     1       3.058   7.048   5.985  0.00  0.00    +0.000 A 
ATOM      4  C   UNL     1       3.260   7.152   7.352  0.00  0.00    +0.000 A 
ATOM      5  C   UNL     1       4.605   7.394   7.715  0.00  0.00    +0.000 A 
ATOM      6  C   UNL     1       5.643   7.190   6.925  0.00  0.00    +0.000 A 
ATOM      7  C   UNL     1       5.372   7.026   5.595  0.00  0.00    +0.000 A 
ATOM      8  C   UNL     1       4.078   6.912   5.147  0.00  0.00    +0.000 A 
BRANCH   6   9
ATOM      9  O   UNL     1       6.970   7.142   7.430  0.00  0.00    +0.000 OA
ATOM     10  H   UNL     1       7.736   6.986   6.807  0.00  0.00    +0.000 HD
ENDBRANCH   6   9
BRANCH   8  11
ATOM     11  O   UNL     1       3.830   6.647   3.774  0.00  0.00    +0.000 OA
ATOM     12  H   UNL     1       2.891   6.563   3.442  0.00  0.00    +0.000 HD
ENDBRANCH   8  11
ENDBRANCH   1   3
BRANCH   1  14
ATOM     13  C   UNL     1       2.088   5.158   3.919  0.00  0.00    +0.000 C 
ATOM     14  C   UNL     1       1.208   6.090   4.375  0.00  0.00    +0.000 C 
BRANCH  13  18
ATOM     15  C   UNL     1       0.799   2.205   1.115  0.00  0.00    +0.000 A 
ATOM     16  C   UNL     1      -0.133   3.099   1.614  0.00  0.00    +0.000 A 
ATOM     17  C   UNL     1       0.433   4.163   2.357  0.00  0.00    +0.000 A 
ATOM     18  C   UNL     1       1.654   4.159   2.859  0.00  0.00    +0.000 A 
ATOM     19  C   UNL     1       2.508   3.207   2.374  0.00  0.00    +0.000 A 
ATOM     20  C   UNL     1       2.057   2.212   1.540  0.00  0.00    +0.000 A 
BRANCH  15  22
ATOM     21  C   UNL     1       0.929   0.045  -0.055  0.00  0.00    +0.000 C 
ATOM     22  O   UNL     1       0.456   1.383   0.009  0.00  0.00    +0.000 OA
ENDBRANCH  15  22
ENDBRANCH  13  18
ENDBRANCH   1  14
TORSDOF 6
