
 OpenBabel09262515243D

 37 38  0  0  0  0  0  0  0  0999 V2000
    0.9917    0.0897    0.0434 C   0  0  0  0  0  0  0  0  0  0  0  0
    0.5183    0.1100   -1.2953 O   0  0  0  0  0  0  0  0  0  0  0  0
    0.8614    1.1881   -2.1534 C   0  0  0  0  0  0  0  0  0  0  0  0
   -0.0667    1.9129   -2.8826 C   0  0  0  0  0  0  0  0  0  0  0  0
    0.5091    2.8461   -3.7768 C   0  0  0  0  0  0  0  0  0  0  0  0
    1.7541    3.2808   -3.7065 C   0  0  0  0  0  0  0  0  0  0  0  0
    2.2155    4.5152   -4.4641 C   0  0  0  0  0  0  0  0  0  0  0  0
    1.3367    5.2044   -5.2409 C   0  0  0  0  0  0  0  0  0  0  0  0
    1.7981    6.4387   -5.9986 C   0  0  0  0  0  0  0  0  0  0  0  0
    0.9772    7.0826   -6.7243 O   0  0  0  0  0  0  0  0  0  0  0  0
    3.2412    6.9030   -5.8881 C   0  0  0  0  0  0  0  0  0  0  0  0
    3.5080    8.2487   -5.6971 C   0  0  0  0  0  0  0  0  0  0  0  0
    4.8636    8.5990   -5.9013 C   0  0  0  0  0  0  0  0  0  0  0  0
    5.8659    7.7392   -5.9121 C   0  0  0  0  0  0  0  0  0  0  0  0
    7.2167    8.1632   -5.8022 O   0  0  0  0  0  0  0  0  0  0  0  0
    8.2650    7.2055   -5.8181 C   0  0  0  0  0  0  0  0  0  0  0  0
    5.5330    6.4187   -6.0348 C   0  0  0  0  0  0  0  0  0  0  0  0
    4.2219    6.0121   -5.9763 C   0  0  0  0  0  0  0  0  0  0  0  0
    3.9128    4.6266   -6.0104 O   0  0  0  0  0  0  0  0  0  0  0  0
    2.6059    2.5608   -2.9155 C   0  0  0  0  0  0  0  0  0  0  0  0
    2.1387    1.5485   -2.1125 C   0  0  0  0  0  0  0  0  0  0  0  0
    0.6350   -0.7915    0.5345 H   0  0  0  0  0  0  0  0  0  0  0  0
    0.6350    0.9556    0.5609 H   0  0  0  0  0  0  0  0  0  0  0  0
    2.0617    0.0897    0.0434 H   0  0  0  0  0  0  0  0  0  0  0  0
   -1.1233    1.7792   -2.7792 H   0  0  0  0  0  0  0  0  0  0  0  0
   -0.1071    3.2261   -4.5647 H   0  0  0  0  0  0  0  0  0  0  0  0
    3.2314    4.8420   -4.3863 H   0  0  0  0  0  0  0  0  0  0  0  0
    0.3208    4.8776   -5.3187 H   0  0  0  0  0  0  0  0  0  0  0  0
    2.7571    8.9589   -5.4203 H   0  0  0  0  0  0  0  0  0  0  0  0
    5.0926    9.6324   -6.0578 H   0  0  0  0  0  0  0  0  0  0  0  0
    8.1400    6.5263   -5.0008 H   0  0  0  0  0  0  0  0  0  0  0  0
    8.2385    6.6630   -6.7400 H   0  0  0  0  0  0  0  0  0  0  0  0
    9.2064    7.7056   -5.7254 H   0  0  0  0  0  0  0  0  0  0  0  0
    6.3047    5.6915   -6.1784 H   0  0  0  0  0  0  0  0  0  0  0  0
    2.9600    4.3257   -5.9682 H   0  0  0  0  0  0  0  0  0  0  0  0
    3.6512    2.7890   -2.9220 H   0  0  0  0  0  0  0  0  0  0  0  0
    2.8103    1.0461   -1.4481 H   0  0  0  0  0  0  0  0  0  0  0  0
  1  2  1  0  0  0  0
  1 22  1  0  0  0  0
  1 23  1  0  0  0  0
  1 24  1  0  0  0  0
  2  3  1  0  0  0  0
  3  4  1  0  0  0  0
  3 21  2  0  0  0  0
  4  5  2  0  0  0  0
  4 25  1  0  0  0  0
  5  6  1  0  0  0  0
  5 26  1  0  0  0  0
  6  7  1  0  0  0  0
  6 20  2  0  0  0  0
  7  8  2  0  0  0  0
  7 27  1  0  0  0  0
  8  9  1  0  0  0  0
  8 28  1  0  0  0  0
  9 10  2  0  0  0  0
  9 11  1  0  0  0  0
 11 12  1  0  0  0  0
 11 18  2  0  0  0  0
 12 13  2  0  0  0  0
 12 29  1  0  0  0  0
 13 14  1  0  0  0  0
 13 30  1  0  0  0  0
 14 15  1  0  0  0  0
 14 17  2  0  0  0  0
 15 16  1  0  0  0  0
 16 31  1  0  0  0  0
 16 32  1  0  0  0  0
 16 33  1  0  0  0  0
 17 18  1  0  0  0  0
 17 34  1  0  0  0  0
 18 19  1  0  0  0  0
 19 35  1  0  0  0  0
 20 21  1  0  0  0  0
 20 36  1  0  0  0  0
 21 37  1  0  0  0  0
M  END
