REMARK  Name = 
REMARK  8 active torsions:
REMARK  status: ('A' for Active; 'I' for Inactive)
REMARK    1  A    between atoms: C_1  and  O_2
REMARK    2  A    between atoms: O_2  and  C_3
REMARK    3  A    between atoms: C_6  and  C_7
REMARK    4  A    between atoms: C_8  and  C_9
REMARK    5  A    between atoms: C_9  and  C_11
REMARK    6  A    between atoms: C_14  and  O_15
REMARK    7  A    between atoms: O_15  and  C_16
REMARK    8  A    between atoms: C_18  and  O_19
REMARK                            x       y       z     vdW  Elec       q    Type
REMARK                         _______ _______ _______ _____ _____    ______ ____
ROOT
ATOM      1  C   UNL     1       1.798   6.439  -5.999  0.00  0.00    +0.000 C 
ATOM      2  O   UNL     1       0.977   7.083  -6.724  0.00  0.00    +0.000 OA
ENDROOT
BRANCH   1   3
ATOM      3  C   UNL     1       3.241   6.903  -5.888  0.00  0.00    +0.000 A 
ATOM      4  C   UNL     1       3.508   8.249  -5.697  0.00  0.00    +0.000 A 
ATOM      5  C   UNL     1       4.864   8.599  -5.901  0.00  0.00    +0.000 A 
ATOM      6  C   UNL     1       5.866   7.739  -5.912  0.00  0.00    +0.000 A 
ATOM      7  C   UNL     1       5.533   6.419  -6.035  0.00  0.00    +0.000 A 
ATOM      8  C   UNL     1       4.222   6.012  -5.976  0.00  0.00    +0.000 A 
BRANCH   6   9
ATOM      9  O   UNL     1       7.217   8.163  -5.802  0.00  0.00    +0.000 OA
ATOM     10  C   UNL     1       8.265   7.205  -5.818  0.00  0.00    +0.000 C 
ENDBRANCH   6   9
BRANCH   8  11
ATOM     11  O   UNL     1       3.913   4.627  -6.010  0.00  0.00    +0.000 OA
ATOM     12  H   UNL     1       2.960   4.326  -5.968  0.00  0.00    +0.000 HD
ENDBRANCH   8  11
ENDBRANCH   1   3
BRANCH   1  14
ATOM     13  C   UNL     1       2.216   4.515  -4.464  0.00  0.00    +0.000 C 
ATOM     14  C   UNL     1       1.337   5.204  -5.241  0.00  0.00    +0.000 C 
BRANCH  13  18
ATOM     15  C   UNL     1       0.861   1.188  -2.153  0.00  0.00    +0.000 A 
ATOM     16  C   UNL     1      -0.067   1.913  -2.883  0.00  0.00    +0.000 A 
ATOM     17  C   UNL     1       0.509   2.846  -3.777  0.00  0.00    +0.000 A 
ATOM     18  C   UNL     1       1.754   3.281  -3.707  0.00  0.00    +0.000 A 
ATOM     19  C   UNL     1       2.606   2.561  -2.916  0.00  0.00    +0.000 A 
ATOM     20  C   UNL     1       2.139   1.548  -2.112  0.00  0.00    +0.000 A 
BRANCH  15  22
ATOM     21  C   UNL     1       0.992   0.090   0.043  0.00  0.00    +0.000 C 
ATOM     22  O   UNL     1       0.518   0.110  -1.295  0.00  0.00    +0.000 OA
ENDBRANCH  15  22
ENDBRANCH  13  18
ENDBRANCH   1  14
TORSDOF 6
