REMARK  Name = 
REMARK  7 active torsions:
REMARK  status: ('A' for Active; 'I' for Inactive)
REMARK    1  A    between atoms: C_1  and  O_2
REMARK    2  A    between atoms: O_2  and  C_3
REMARK    3  A    between atoms: C_6  and  C_7
REMARK    4  A    between atoms: C_7  and  C_9
REMARK    5  A    between atoms: C_10  and  C_11
REMARK    6  A    between atoms: C_14  and  O_15
REMARK    7  A    between atoms: C_18  and  O_19
REMARK                            x       y       z     vdW  Elec       q    Type
REMARK                         _______ _______ _______ _____ _____    ______ ____
ROOT
ATOM      1  C   UNL     1       2.273  -6.232   0.933  0.00  0.00    +0.000 C 
ATOM      2  O   UNL     1       1.998  -7.229   0.195  0.00  0.00    +0.000 OA
ENDROOT
BRANCH   1   6
ATOM      3  C   UNL     1       0.992  -2.312  -0.222  0.00  0.00    +0.000 A 
ATOM      4  C   UNL     1       0.673  -3.401  -0.998  0.00  0.00    +0.000 A 
ATOM      5  C   UNL     1       1.090  -4.663  -0.623  0.00  0.00    +0.000 A 
ATOM      6  C   UNL     1       1.808  -4.840   0.535  0.00  0.00    +0.000 A 
ATOM      7  C   UNL     1       2.108  -3.760   1.336  0.00  0.00    +0.000 A 
ATOM      8  C   UNL     1       1.702  -2.468   0.987  0.00  0.00    +0.000 A 
BRANCH   3  10
ATOM      9  C   UNL     1       1.054   0.023   0.081  0.00  0.00    +0.000 C 
ATOM     10  O   UNL     1       0.580  -1.097  -0.652  0.00  0.00    +0.000 OA
ENDBRANCH   3  10
BRANCH   7  11
ATOM     11  O   UNL     1       2.841  -3.962   2.535  0.00  0.00    +0.000 OA
ATOM     12  H   UNL     1       3.063  -3.184   3.123  0.00  0.00    +0.000 HD
ENDBRANCH   7  11
ENDBRANCH   1   6
BRANCH   1  13
ATOM     13  C   UNL     1       3.068  -6.430   2.214  0.00  0.00    +0.000 C 
ATOM     14  C   UNL     1       3.363  -5.362   3.003  0.00  0.00    +0.000 C 
BRANCH  14  15
ATOM     15  C   UNL     1       4.157  -5.561   4.284  0.00  0.00    +0.000 A 
ATOM     16  C   UNL     1       5.278  -6.362   4.277  0.00  0.00    +0.000 A 
ATOM     17  C   UNL     1       6.025  -6.567   5.442  0.00  0.00    +0.000 A 
ATOM     18  C   UNL     1       5.599  -5.911   6.615  0.00  0.00    +0.000 A 
ATOM     19  C   UNL     1       4.462  -5.138   6.616  0.00  0.00    +0.000 A 
ATOM     20  C   UNL     1       3.748  -4.956   5.448  0.00  0.00    +0.000 A 
BRANCH  18  21
ATOM     21  O   UNL     1       6.272  -6.032   7.782  0.00  0.00    +0.000 OA
ATOM     22  H   UNL     1       7.104  -6.585   7.824  0.00  0.00    +0.000 HD
ENDBRANCH  18  21
ENDBRANCH  14  15
ENDBRANCH   1  13
TORSDOF 6
