REMARK  Name = 
REMARK  6 active torsions:
REMARK  status: ('A' for Active; 'I' for Inactive)
REMARK    1  A    between atoms: C_1  and  O_2
REMARK    2  A    between atoms: O_2  and  C_3
REMARK    3  A    between atoms: C_6  and  C_7
REMARK    4  A    between atoms: C_7  and  C_9
REMARK    5  A    between atoms: C_10  and  C_11
REMARK    6  A    between atoms: C_17  and  O_18
REMARK                            x       y       z     vdW  Elec       q    Type
REMARK                         _______ _______ _______ _____ _____    ______ ____
ROOT
ATOM      1  C   UNL     1       0.173  -0.911  -2.048  0.00  0.00    +0.000 A 
ATOM      2  C   UNL     1      -0.239  -0.636  -3.330  0.00  0.00    +0.000 A 
ATOM      3  C   UNL     1      -0.602  -1.666  -4.177  0.00  0.00    +0.000 A 
ATOM      4  C   UNL     1      -0.573  -2.967  -3.737  0.00  0.00    +0.000 A 
ATOM      5  C   UNL     1      -0.190  -3.253  -2.444  0.00  0.00    +0.000 A 
ATOM      6  C   UNL     1       0.184  -2.235  -1.561  0.00  0.00    +0.000 A 
ENDROOT
BRANCH   1   8
ATOM      7  C   UNL     1       1.015  -0.087   0.047  0.00  0.00    +0.000 C 
ATOM      8  O   UNL     1       0.542   0.134  -1.274  0.00  0.00    +0.000 OA
ENDBRANCH   1   8
BRANCH   4   9
ATOM      9  C   UNL     1      -0.962  -4.095  -4.679  0.00  0.00    +0.000 C 
ATOM     10  O   UNL     1      -1.315  -3.833  -5.871  0.00  0.00    +0.000 OA
BRANCH   9  11
ATOM     11  C   UNL     1      -0.930  -5.535  -4.194  0.00  0.00    +0.000 C 
ATOM     12  C   UNL     1      -0.553  -5.815  -2.918  0.00  0.00    +0.000 C 
BRANCH  12  13
ATOM     13  C   UNL     1      -0.520  -7.256  -2.433  0.00  0.00    +0.000 A 
ATOM     14  C   UNL     1      -1.046  -7.585  -1.195  0.00  0.00    +0.000 A 
ATOM     15  C   UNL     1      -0.690  -8.878  -0.746  0.00  0.00    +0.000 A 
ATOM     16  C   UNL     1      -0.223  -9.839  -1.523  0.00  0.00    +0.000 A 
ATOM     17  C   UNL     1       0.218  -9.459  -2.760  0.00  0.00    +0.000 A 
ATOM     18  C   UNL     1       0.023  -8.179  -3.218  0.00  0.00    +0.000 A 
ENDBRANCH  12  13
ENDBRANCH   9  11
ENDBRANCH   4   9
BRANCH   5  19
ATOM     19  O   UNL     1      -0.176  -4.602  -2.002  0.00  0.00    +0.000 OA
ATOM     20  H   UNL     1       0.100  -4.818  -1.065  0.00  0.00    +0.000 HD
ENDBRANCH   5  19
TORSDOF 5
