
 OpenBabel09262515243D

 33 34  0  0  0  0  0  0  0  0999 V2000
    1.0150   -0.0870    0.0469 C   0  0  0  0  0  0  0  0  0  0  0  0
    0.5417    0.1338   -1.2735 O   0  0  0  0  0  0  0  0  0  0  0  0
    0.1727   -0.9115   -2.0483 C   0  0  0  0  0  0  0  0  0  0  0  0
   -0.2388   -0.6364   -3.3305 C   0  0  0  0  0  0  0  0  0  0  0  0
   -0.6022   -1.6662   -4.1766 C   0  0  0  0  0  0  0  0  0  0  0  0
   -0.5725   -2.9674   -3.7368 C   0  0  0  0  0  0  0  0  0  0  0  0
   -0.9623   -4.0949   -4.6787 C   0  0  0  0  0  0  0  0  0  0  0  0
   -1.3151   -3.8333   -5.8713 O   0  0  0  0  0  0  0  0  0  0  0  0
   -0.9302   -5.5353   -4.1942 C   0  0  0  0  0  0  0  0  0  0  0  0
   -0.5526   -5.8153   -2.9176 C   0  0  0  0  0  0  0  0  0  0  0  0
   -0.5205   -7.2557   -2.4331 C   0  0  0  0  0  0  0  0  0  0  0  0
   -1.0463   -7.5848   -1.1947 C   0  0  0  0  0  0  0  0  0  0  0  0
   -0.6895   -8.8784   -0.7458 C   0  0  0  0  0  0  0  0  0  0  0  0
   -0.2234   -9.8388   -1.5233 C   0  0  0  0  0  0  0  0  0  0  0  0
    0.2179   -9.4593   -2.7605 C   0  0  0  0  0  0  0  0  0  0  0  0
    0.0227   -8.1786   -3.2182 C   0  0  0  0  0  0  0  0  0  0  0  0
   -0.1904   -3.2531   -2.4444 C   0  0  0  0  0  0  0  0  0  0  0  0
   -0.1764   -4.6023   -2.0018 O   0  0  0  0  0  0  0  0  0  0  0  0
    0.1839   -2.2349   -1.5613 C   0  0  0  0  0  0  0  0  0  0  0  0
    0.6583   -1.0319    0.4003 H   0  0  0  0  0  0  0  0  0  0  0  0
    0.6583    0.6915    0.6885 H   0  0  0  0  0  0  0  0  0  0  0  0
    2.0850   -0.0870    0.0469 H   0  0  0  0  0  0  0  0  0  0  0  0
   -0.2778    0.3764   -3.6737 H   0  0  0  0  0  0  0  0  0  0  0  0
   -0.9080   -1.4495   -5.1788 H   0  0  0  0  0  0  0  0  0  0  0  0
   -1.2046   -6.3290   -4.8572 H   0  0  0  0  0  0  0  0  0  0  0  0
   -0.2782   -5.0216   -2.2546 H   0  0  0  0  0  0  0  0  0  0  0  0
   -1.6660   -6.9211   -0.6287 H   0  0  0  0  0  0  0  0  0  0  0  0
   -0.8053   -9.0934    0.2959 H   0  0  0  0  0  0  0  0  0  0  0  0
   -0.1927  -10.8590   -1.2022 H   0  0  0  0  0  0  0  0  0  0  0  0
    0.7224  -10.1700   -3.3812 H   0  0  0  0  0  0  0  0  0  0  0  0
    0.3111   -7.9226   -4.2163 H   0  0  0  0  0  0  0  0  0  0  0  0
    0.0997   -4.8184   -1.0653 H   0  0  0  0  0  0  0  0  0  0  0  0
    0.4684   -2.4523   -0.5530 H   0  0  0  0  0  0  0  0  0  0  0  0
  1  2  1  0  0  0  0
  1 20  1  0  0  0  0
  1 21  1  0  0  0  0
  1 22  1  0  0  0  0
  2  3  1  0  0  0  0
  3  4  1  0  0  0  0
  3 19  2  0  0  0  0
  4  5  2  0  0  0  0
  4 23  1  0  0  0  0
  5  6  1  0  0  0  0
  5 24  1  0  0  0  0
  6  7  1  0  0  0  0
  6 17  2  0  0  0  0
  7  8  2  0  0  0  0
  7  9  1  0  0  0  0
  9 10  2  0  0  0  0
  9 25  1  0  0  0  0
 10 11  1  0  0  0  0
 10 26  1  0  0  0  0
 11 12  1  0  0  0  0
 11 16  2  0  0  0  0
 12 13  2  0  0  0  0
 12 27  1  0  0  0  0
 13 14  1  0  0  0  0
 13 28  1  0  0  0  0
 14 15  2  0  0  0  0
 14 29  1  0  0  0  0
 15 16  1  0  0  0  0
 15 30  1  0  0  0  0
 16 31  1  0  0  0  0
 17 18  1  0  0  0  0
 17 19  1  0  0  0  0
 18 32  1  0  0  0  0
 19 33  1  0  0  0  0
M  END
