REMARK  Name = 
REMARK  9 active torsions:
REMARK  status: ('A' for Active; 'I' for Inactive)
REMARK    1  A    between atoms: C_1  and  O_2
REMARK    2  A    between atoms: O_2  and  C_3
REMARK    3  A    between atoms: C_6  and  C_7
REMARK    4  A    between atoms: C_7  and  C_9
REMARK    5  A    between atoms: C_10  and  C_11
REMARK    6  A    between atoms: C_17  and  O_18
REMARK    7  A    between atoms: O_18  and  C_19
REMARK    8  A    between atoms: C_20  and  O_21
REMARK    9  A    between atoms: O_21  and  C_22
REMARK                            x       y       z     vdW  Elec       q    Type
REMARK                         _______ _______ _______ _____ _____    ______ ____
ROOT
ATOM      1  C   UNL     1       0.887  -2.425  -0.626  0.00  0.00    +0.000 A 
ATOM      2  C   UNL     1      -0.190  -3.193  -1.038  0.00  0.00    +0.000 A 
ATOM      3  C   UNL     1       0.178  -4.369  -1.732  0.00  0.00    +0.000 A 
ATOM      4  C   UNL     1       1.364  -4.580  -2.274  0.00  0.00    +0.000 A 
ATOM      5  C   UNL     1       2.371  -3.744  -1.877  0.00  0.00    +0.000 A 
ATOM      6  C   UNL     1       2.111  -2.648  -1.091  0.00  0.00    +0.000 A 
ENDROOT
BRANCH   1   8
ATOM      7  C   UNL     1       1.017  -0.027  -0.095  0.00  0.00    +0.000 C 
ATOM      8  O   UNL     1       0.544  -1.330   0.211  0.00  0.00    +0.000 OA
ENDBRANCH   1   8
BRANCH   4   9
ATOM      9  C   UNL     1       1.597  -5.691  -3.285  0.00  0.00    +0.000 C 
ATOM     10  O   UNL     1       0.636  -6.447  -3.630  0.00  0.00    +0.000 OA
BRANCH   9  11
ATOM     11  C   UNL     1       2.979  -5.896  -3.884  0.00  0.00    +0.000 C 
ATOM     12  C   UNL     1       4.007  -5.086  -3.514  0.00  0.00    +0.000 C 
BRANCH  12  13
ATOM     13  C   UNL     1       5.389  -5.292  -4.113  0.00  0.00    +0.000 A 
ATOM     14  C   UNL     1       6.498  -5.270  -3.282  0.00  0.00    +0.000 A 
ATOM     15  C   UNL     1       7.730  -5.183  -3.972  0.00  0.00    +0.000 A 
ATOM     16  C   UNL     1       7.891  -5.456  -5.254  0.00  0.00    +0.000 A 
ATOM     17  C   UNL     1       6.753  -5.531  -6.008  0.00  0.00    +0.000 A 
ATOM     18  C   UNL     1       5.512  -5.492  -5.420  0.00  0.00    +0.000 A 
ENDBRANCH  12  13
ENDBRANCH   9  11
ENDBRANCH   4   9
BRANCH   5  19
ATOM     19  O   UNL     1       3.705  -4.013  -2.283  0.00  0.00    +0.000 OA
ATOM     20  C   UNL     1       4.758  -3.152  -1.877  0.00  0.00    +0.000 C 
ENDBRANCH   5  19
BRANCH   6  21
ATOM     21  O   UNL     1       3.159  -1.745  -0.773  0.00  0.00    +0.000 OA
ATOM     22  C   UNL     1       2.898  -0.610   0.039  0.00  0.00    +0.000 C 
ENDBRANCH   6  21
TORSDOF 6
