
 OpenBabel09262515243D

 40 41  0  0  0  0  0  0  0  0999 V2000
    1.0174   -0.0268   -0.0948 C   0  0  0  0  0  0  0  0  0  0  0  0
    0.5441   -1.3301    0.2113 O   0  0  0  0  0  0  0  0  0  0  0  0
    0.8871   -2.4248   -0.6256 C   0  0  0  0  0  0  0  0  0  0  0  0
   -0.1895   -3.1926   -1.0379 C   0  0  0  0  0  0  0  0  0  0  0  0
    0.1781   -4.3692   -1.7325 C   0  0  0  0  0  0  0  0  0  0  0  0
    1.3639   -4.5795   -2.2744 C   0  0  0  0  0  0  0  0  0  0  0  0
    1.5969   -5.6905   -3.2852 C   0  0  0  0  0  0  0  0  0  0  0  0
    0.6361   -6.4475   -3.6302 O   0  0  0  0  0  0  0  0  0  0  0  0
    2.9790   -5.8962   -3.8835 C   0  0  0  0  0  0  0  0  0  0  0  0
    4.0074   -5.0858   -3.5143 C   0  0  0  0  0  0  0  0  0  0  0  0
    5.3895   -5.2915   -4.1126 C   0  0  0  0  0  0  0  0  0  0  0  0
    6.4978   -5.2702   -3.2820 C   0  0  0  0  0  0  0  0  0  0  0  0
    7.7299   -5.1828   -3.9723 C   0  0  0  0  0  0  0  0  0  0  0  0
    7.8912   -5.4561   -5.2542 C   0  0  0  0  0  0  0  0  0  0  0  0
    6.7529   -5.5310   -6.0079 C   0  0  0  0  0  0  0  0  0  0  0  0
    5.5119   -5.4921   -5.4195 C   0  0  0  0  0  0  0  0  0  0  0  0
    2.3708   -3.7441   -1.8773 C   0  0  0  0  0  0  0  0  0  0  0  0
    3.7046   -4.0133   -2.2833 O   0  0  0  0  0  0  0  0  0  0  0  0
    4.7581   -3.1523   -1.8767 C   0  0  0  0  0  0  0  0  0  0  0  0
    2.1106   -2.6477   -1.0911 C   0  0  0  0  0  0  0  0  0  0  0  0
    3.1595   -1.7448   -0.7735 O   0  0  0  0  0  0  0  0  0  0  0  0
    2.8977   -0.6097    0.0386 C   0  0  0  0  0  0  0  0  0  0  0  0
    0.6607    0.6640    0.6404 H   0  0  0  0  0  0  0  0  0  0  0  0
    0.6607    0.2645   -1.0606 H   0  0  0  0  0  0  0  0  0  0  0  0
    2.0874   -0.0268   -0.0948 H   0  0  0  0  0  0  0  0  0  0  0  0
   -1.2068   -2.9206   -0.8483 H   0  0  0  0  0  0  0  0  0  0  0  0
   -0.5557   -5.1424   -1.8251 H   0  0  0  0  0  0  0  0  0  0  0  0
    3.1430   -6.6783   -4.5951 H   0  0  0  0  0  0  0  0  0  0  0  0
    3.8434   -4.3037   -2.8027 H   0  0  0  0  0  0  0  0  0  0  0  0
    6.4285   -5.3157   -2.2152 H   0  0  0  0  0  0  0  0  0  0  0  0
    8.5908   -4.8739   -3.4170 H   0  0  0  0  0  0  0  0  0  0  0  0
    8.8605   -5.6106   -5.6801 H   0  0  0  0  0  0  0  0  0  0  0  0
    6.8296   -5.6211   -7.0714 H   0  0  0  0  0  0  0  0  0  0  0  0
    4.6361   -5.6247   -6.0198 H   0  0  0  0  0  0  0  0  0  0  0  0
    4.5715   -2.1638   -2.2411 H   0  0  0  0  0  0  0  0  0  0  0  0
    4.8117   -3.1344   -0.8082 H   0  0  0  0  0  0  0  0  0  0  0  0
    5.6847   -3.5101   -2.2744 H   0  0  0  0  0  0  0  0  0  0  0  0
    2.1616    0.0056   -0.4352 H   0  0  0  0  0  0  0  0  0  0  0  0
    2.5344   -0.9299    0.9927 H   0  0  0  0  0  0  0  0  0  0  0  0
    3.7998   -0.0495    0.1700 H   0  0  0  0  0  0  0  0  0  0  0  0
  1  2  1  0  0  0  0
  1 23  1  0  0  0  0
  1 24  1  0  0  0  0
  1 25  1  0  0  0  0
  2  3  1  0  0  0  0
  3  4  1  0  0  0  0
  3 20  2  0  0  0  0
  4  5  2  0  0  0  0
  4 26  1  0  0  0  0
  5  6  1  0  0  0  0
  5 27  1  0  0  0  0
  6  7  1  0  0  0  0
  6 17  2  0  0  0  0
  7  8  2  0  0  0  0
  7  9  1  0  0  0  0
  9 10  2  0  0  0  0
  9 28  1  0  0  0  0
 10 11  1  0  0  0  0
 10 29  1  0  0  0  0
 11 12  1  0  0  0  0
 11 16  2  0  0  0  0
 12 13  2  0  0  0  0
 12 30  1  0  0  0  0
 13 14  1  0  0  0  0
 13 31  1  0  0  0  0
 14 15  2  0  0  0  0
 14 32  1  0  0  0  0
 15 16  1  0  0  0  0
 15 33  1  0  0  0  0
 16 34  1  0  0  0  0
 17 18  1  0  0  0  0
 17 20  1  0  0  0  0
 18 19  1  0  0  0  0
 19 35  1  0  0  0  0
 19 36  1  0  0  0  0
 19 37  1  0  0  0  0
 20 21  1  0  0  0  0
 21 22  1  0  0  0  0
 22 38  1  0  0  0  0
 22 39  1  0  0  0  0
 22 40  1  0  0  0  0
M  END
